jnk.pp.1-12.sdf
  -OEChem-04100307473D

 29 32  0     0  0  0  0  0  0999 V2000
   27.3000    1.3020   30.2500 C   0  0  0  0  0  0  0  0  0  0  0  0
   27.1600    2.2510   31.3070 O   0  0  0  0  0  0  0  0  0  0  0  0
   26.1050    3.1850   31.1470 C   0  0  0  0  0  0  0  0  0  0  0  0
   24.9610    3.0820   32.0810 C   0  0  0  0  0  0  0  0  0  0  0  0
   23.8990    4.1130   32.0560 C   0  0  0  0  0  0  0  0  0  0  0  0
   23.9580    5.2510   31.1050 C   0  0  0  0  0  0  0  0  0  0  0  0
   25.1090    5.3470   30.1720 C   0  0  0  0  0  0  0  0  0  0  0  0
   26.1740    4.3240   30.1810 C   0  0  0  0  0  0  0  0  0  0  0  0
   22.8440    6.2950   31.0650 C   0  0  0  0  0  0  0  0  0  0  0  0
   22.8990    7.2790   30.3280 O   0  0  0  0  0  0  0  0  0  0  0  0
   21.7620    6.0680   31.8920 N   0  0  0  0  0  0  0  0  0  0  0  0
   20.8080    6.9920   32.3180 C   0  0  0  0  0  0  0  0  0  0  0  0
   19.5780    6.5850   32.7380 N   0  0  0  0  0  0  0  0  0  0  0  0
   18.5910    7.4850   33.1100 C   0  0  0  0  0  0  0  0  0  0  0  0
   18.7960    8.9120   33.0830 C   0  0  0  0  0  0  0  0  0  0  0  0
   20.1270    9.2780   32.6350 C   0  0  0  0  0  0  0  0  0  0  0  0
   21.0810    8.3360   32.2750 N   0  0  0  0  0  0  0  0  0  0  0  0
   20.5280   10.7090   32.5040 C   0  0  0  0  0  0  0  0  0  0  0  0
   21.4250   11.1870   31.5760 C   0  0  0  0  0  0  0  0  0  0  0  0
   22.2720   10.4610   30.5330 C   0  0  0  0  0  0  0  0  0  0  0  0
   21.4980   12.5330   31.5790 O   0  0  0  0  0  0  0  0  0  0  0  0
   20.5590   12.8720   32.5520 N   0  0  0  0  0  0  0  0  0  0  0  0
   19.9900   11.9050   33.2120 C   0  0  0  0  0  0  0  0  0  0  0  0
   19.0550   12.0810   34.3670 C   0  0  0  0  0  0  0  0  0  0  0  0
   19.2130   11.2710   35.5850 C   0  0  0  0  0  0  0  0  0  0  0  0
   18.2890   11.4530   36.7000 C   0  0  0  0  0  0  0  0  0  0  0  0
   17.2030   12.4420   36.6080 C   0  0  0  0  0  0  0  0  0  0  0  0
   17.0640   13.2350   35.3830 C   0  0  0  0  0  0  0  0  0  0  0  0
   17.9820   13.0620   34.2690 C   0  0  0  0  0  0  0  0  0  0  0  0
  1  2  1  0  0  0  0
  2  3  1  0  0  0  0
  3  8  2  0  0  0  0
  3  4  1  0  0  0  0
  4  5  2  0  0  0  0
  5  6  1  0  0  0  0
  6  7  2  0  0  0  0
  7  8  1  0  0  0  0
  6  9  1  0  0  0  0
  9 10  2  0  0  0  0
  9 11  1  0  0  0  0
 11 12  1  0  0  0  0
 12 17  2  0  0  0  0
 12 13  1  0  0  0  0
 13 14  2  0  0  0  0
 14 15  1  0  0  0  0
 15 16  2  0  0  0  0
 16 17  1  0  0  0  0
 16 18  1  0  0  0  0
 18 23  1  0  0  0  0
 18 19  2  0  0  0  0
 19 20  1  0  0  0  0
 19 21  1  0  0  0  0
 21 22  1  0  0  0  0
 22 23  2  0  0  0  0
 23 24  1  0  0  0  0
 24 29  2  0  0  0  0
 24 25  1  0  0  0  0
 25 26  2  0  0  0  0
 26 27  1  0  0  0  0
 27 28  2  0  0  0  0
 28 29  1  0  0  0  0
M  END
$$$$
vertex_jnk3_structure4_lig
