jnk.pp.1-33.sdf
  -OEChem-04100307473D

 29 32  0     0  0  0  0  0  0999 V2000
   27.1130    8.5700   28.2260 C   0  0  0  0  0  0  0  0  0  0  0  0
   26.4140    7.5060   29.0060 O   0  0  0  0  0  0  0  0  0  0  0  0
   25.0980    7.6620   29.2580 C   0  0  0  0  0  0  0  0  0  0  0  0
   24.4400    8.5580   28.8090 O   0  0  0  0  0  0  0  0  0  0  0  0
   24.5550    6.6000   30.1810 C   0  0  0  0  0  0  0  0  0  0  0  0
   25.2320    5.4170   30.4170 C   0  0  0  0  0  0  0  0  0  0  0  0
   24.7440    4.4350   31.2740 C   0  0  0  0  0  0  0  0  0  0  0  0
   23.5200    4.7080   31.9030 C   0  0  0  0  0  0  0  0  0  0  0  0
   22.7960    5.8710   31.7160 C   0  0  0  0  0  0  0  0  0  0  0  0
   21.6530    5.9850   32.4680 N   0  0  0  0  0  0  0  0  0  0  0  0
   20.8430    7.0890   32.6990 C   0  0  0  0  0  0  0  0  0  0  0  0
   21.2100    8.3470   32.5290 C   0  0  0  0  0  0  0  0  0  0  0  0
   20.3260    9.3410   32.7620 C   0  0  0  0  0  0  0  0  0  0  0  0
   19.0510    9.0520   33.1810 C   0  0  0  0  0  0  0  0  0  0  0  0
   18.7320    7.7260   33.3460 C   0  0  0  0  0  0  0  0  0  0  0  0
   19.6430    6.8180   33.0990 N   0  0  0  0  0  0  0  0  0  0  0  0
   20.7340   10.7720   32.5450 C   0  0  0  0  0  0  0  0  0  0  0  0
   21.5760   11.2540   31.5730 C   0  0  0  0  0  0  0  0  0  0  0  0
   22.4050   10.5320   30.5230 C   0  0  0  0  0  0  0  0  0  0  0  0
   21.6180   12.6010   31.5880 O   0  0  0  0  0  0  0  0  0  0  0  0
   20.8100   12.9570   32.6690 N   0  0  0  0  0  0  0  0  0  0  0  0
   20.2160   11.9650   33.2590 C   0  0  0  0  0  0  0  0  0  0  0  0
   19.2330   12.0560   34.3820 C   0  0  0  0  0  0  0  0  0  0  0  0
   19.3730   11.2240   35.5130 C   0  0  0  0  0  0  0  0  0  0  0  0
   18.4530   11.2930   36.5760 C   0  0  0  0  0  0  0  0  0  0  0  0
   17.4090   12.1860   36.4800 C   0  0  0  0  0  0  0  0  0  0  0  0
   17.2540   13.0180   35.3750 C   0  0  0  0  0  0  0  0  0  0  0  0
   18.1750   12.9570   34.3140 C   0  0  0  0  0  0  0  0  0  0  0  0
   23.3270    6.8040   30.8410 C   0  0  0  0  0  0  0  0  0  0  0  0
  1  2  1  0  0  0  0
  2  3  1  0  0  0  0
  3  4  2  0  0  0  0
  3  5  1  0  0  0  0
  5 29  2  0  0  0  0
  5  6  1  0  0  0  0
  6  7  2  0  0  0  0
  7  8  1  0  0  0  0
  8  9  2  0  0  0  0
  9 10  1  0  0  0  0
 10 11  1  0  0  0  0
 11 16  2  0  0  0  0
 11 12  1  0  0  0  0
 12 13  2  0  0  0  0
 13 14  1  0  0  0  0
 14 15  2  0  0  0  0
 15 16  1  0  0  0  0
 13 17  1  0  0  0  0
 17 22  1  0  0  0  0
 17 18  2  0  0  0  0
 18 19  1  0  0  0  0
 18 20  1  0  0  0  0
 20 21  1  0  0  0  0
 21 22  2  0  0  0  0
 22 23  1  0  0  0  0
 23 28  2  0  0  0  0
 23 24  1  0  0  0  0
 24 25  2  0  0  0  0
 25 26  1  0  0  0  0
 26 27  2  0  0  0  0
 27 28  1  0  0  0  0
  9 29  1  0  0  0  0
M  END
$$$$
vertex_jnk3_structure12_lig
