jnk.pp.1-19.sdf
  -OEChem-04100307473D

 28 31  0     0  0  0  0  0  0999 V2000
   25.2200   10.5630   31.4860 C   0  0  0  0  0  0  0  0  0  0  0  0
   24.0870   11.1360   30.6590 C   0  0  0  0  0  0  0  0  0  0  0  0
   22.9800   10.2670   30.6970 O   0  0  0  0  0  0  0  0  0  0  0  0
   21.7800   10.9100   30.2830 C   0  0  0  0  0  0  0  0  0  0  0  0
   21.1010   11.5300   31.5270 C   0  0  0  0  0  0  0  0  0  0  0  0
   21.2250   12.8730   31.6890 O   0  0  0  0  0  0  0  0  0  0  0  0
   20.3150   13.1340   32.7220 N   0  0  0  0  0  0  0  0  0  0  0  0
   19.7850   12.1070   33.3080 C   0  0  0  0  0  0  0  0  0  0  0  0
   20.3150   10.9490   32.4930 C   0  0  0  0  0  0  0  0  0  0  0  0
   20.0260    9.4690   32.6880 C   0  0  0  0  0  0  0  0  0  0  0  0
   18.6940    9.0480   33.0760 C   0  0  0  0  0  0  0  0  0  0  0  0
   18.4330    7.6110   33.2200 C   0  0  0  0  0  0  0  0  0  0  0  0
   19.4770    6.7230   32.9730 N   0  0  0  0  0  0  0  0  0  0  0  0
   20.7570    7.0640   32.5950 C   0  0  0  0  0  0  0  0  0  0  0  0
   21.6370    5.9930   32.2900 N   0  0  0  0  0  0  0  0  0  0  0  0
   22.7720    5.9150   31.4120 C   0  0  0  0  0  0  0  0  0  0  0  0
   23.6720    4.7830   31.6280 C   0  0  0  0  0  0  0  0  0  0  0  0
   24.9110    4.6470   30.8590 C   0  0  0  0  0  0  0  0  0  0  0  0
   25.2720    5.6590   29.8390 C   0  0  0  0  0  0  0  0  0  0  0  0
   24.3870    6.8040   29.5890 C   0  0  0  0  0  0  0  0  0  0  0  0
   23.1560    6.9170   30.3720 C   0  0  0  0  0  0  0  0  0  0  0  0
   21.0690    8.4980   32.4500 C   0  0  0  0  0  0  0  0  0  0  0  0
   18.8990   12.1350   34.4910 C   0  0  0  0  0  0  0  0  0  0  0  0
   19.2600   11.3220   35.6530 C   0  0  0  0  0  0  0  0  0  0  0  0
   18.3950   11.2720   36.8280 C   0  0  0  0  0  0  0  0  0  0  0  0
   17.1460   12.0550   36.8270 C   0  0  0  0  0  0  0  0  0  0  0  0
   16.7820   12.8740   35.6650 C   0  0  0  0  0  0  0  0  0  0  0  0
   17.6650   12.9140   34.4930 C   0  0  0  0  0  0  0  0  0  0  0  0
  1  2  1  0  0  0  0
  2  3  1  0  0  0  0
  3  4  1  0  0  0  0
  4  5  1  0  0  0  0
  5  9  2  0  0  0  0
  5  6  1  0  0  0  0
  6  7  1  0  0  0  0
  7  8  2  0  0  0  0
  8  9  1  0  0  0  0
  9 10  1  0  0  0  0
 10 22  2  0  0  0  0
 10 11  1  0  0  0  0
 11 12  2  0  0  0  0
 12 13  1  0  0  0  0
 13 14  2  0  0  0  0
 14 15  1  0  0  0  0
 15 16  1  0  0  0  0
 16 21  2  0  0  0  0
 16 17  1  0  0  0  0
 17 18  2  0  0  0  0
 18 19  1  0  0  0  0
 19 20  2  0  0  0  0
 20 21  1  0  0  0  0
 14 22  1  0  0  0  0
  8 23  1  0  0  0  0
 23 28  2  0  0  0  0
 23 24  1  0  0  0  0
 24 25  2  0  0  0  0
 25 26  1  0  0  0  0
 26 27  2  0  0  0  0
 27 28  1  0  0  0  0
M  END
$$$$
vertex_jnk3_structure16_lig
