jnk.pp.1-1.sdf
  -OEChem-04100307473D

 29 32  0     0  0  0  0  0  0999 V2000
   22.3440   14.2120   29.1930 C   0  0  0  0  0  0  0  0  0  0  0  0
   23.4130   12.9920   30.2130 S   0  0  0  0  0  0  0  0  0  0  0  0
   22.0280   12.3270   31.1960 C   0  0  0  0  0  0  0  0  0  0  0  0
   21.9860   10.5600   30.9530 S   0  0  0  0  0  0  0  0  0  0  0  0
   20.6300   10.4280   32.2220 C   0  0  0  0  0  0  0  0  0  0  0  0
   20.3890   11.7000   32.7590 C   0  0  0  0  0  0  0  0  0  0  0  0
   21.2200   12.8190   32.1330 C   0  0  0  0  0  0  0  0  0  0  0  0
   21.2170   14.2820   32.4140 C   0  0  0  0  0  0  0  0  0  0  0  0
   21.0920   15.4250   32.5690 N   0  0  0  0  0  0  0  0  0  0  0  0
   19.3620   11.9500   33.8430 C   0  0  0  0  0  0  0  0  0  0  0  0
   19.5340   11.3660   35.1780 C   0  0  0  0  0  0  0  0  0  0  0  0
   18.5030   11.5450   36.2040 C   0  0  0  0  0  0  0  0  0  0  0  0
   17.2880   12.3020   35.9330 C   0  0  0  0  0  0  0  0  0  0  0  0
   16.2340   12.3640   36.9500 C   0  0  0  0  0  0  0  0  0  0  0  0
   17.1210   12.8940   34.6040 C   0  0  0  0  0  0  0  0  0  0  0  0
   18.1430   12.7280   33.5580 C   0  0  0  0  0  0  0  0  0  0  0  0
   20.1080    9.0140   32.4240 C   0  0  0  0  0  0  0  0  0  0  0  0
   18.8030    8.7350   33.0060 C   0  0  0  0  0  0  0  0  0  0  0  0
   18.5200    7.3490   33.1260 C   0  0  0  0  0  0  0  0  0  0  0  0
   19.4040    6.3880   32.7260 N   0  0  0  0  0  0  0  0  0  0  0  0
   20.6330    6.6800   32.1670 C   0  0  0  0  0  0  0  0  0  0  0  0
   21.4330    5.5880   31.7490 N   0  0  0  0  0  0  0  0  0  0  0  0
   22.6280    5.4880   31.0000 C   0  0  0  0  0  0  0  0  0  0  0  0
   23.3650    4.2330   31.1930 C   0  0  0  0  0  0  0  0  0  0  0  0
   24.6470    3.9740   30.5290 C   0  0  0  0  0  0  0  0  0  0  0  0
   25.2160    4.9950   29.6380 C   0  0  0  0  0  0  0  0  0  0  0  0
   24.5050    6.2570   29.4180 C   0  0  0  0  0  0  0  0  0  0  0  0
   23.2220    6.4990   30.0920 C   0  0  0  0  0  0  0  0  0  0  0  0
   20.9830    8.0010   32.0190 N   0  0  0  0  0  0  0  0  0  0  0  0
  1  2  1  0  0  0  0
  2  3  1  0  0  0  0
  3  7  2  0  0  0  0
  3  4  1  0  0  0  0
  4  5  1  0  0  0  0
  5  6  2  0  0  0  0
  6  7  1  0  0  0  0
  7  8  1  0  0  0  0
  8  9  3  0  0  0  0
  6 10  1  0  0  0  0
 10 16  2  0  0  0  0
 10 11  1  0  0  0  0
 11 12  2  0  0  0  0
 12 13  1  0  0  0  0
 13 14  1  0  0  0  0
 13 15  2  0  0  0  0
 15 16  1  0  0  0  0
  5 17  1  0  0  0  0
 17 29  2  0  0  0  0
 17 18  1  0  0  0  0
 18 19  2  0  0  0  0
 19 20  1  0  0  0  0
 20 21  2  0  0  0  0
 21 22  1  0  0  0  0
 22 23  1  0  0  0  0
 23 28  2  0  0  0  0
 23 24  1  0  0  0  0
 24 25  2  0  0  0  0
 25 26  1  0  0  0  0
 26 27  2  0  0  0  0
 27 28  1  0  0  0  0
 21 29  1  0  0  0  0
M  END
$$$$
vertex_jnk3_structure27_lig
