jnk.pp.1-26.sdf
  -OEChem-04100307473D

 29 33  0     0  0  0  0  0  0999 V2000
   22.5960   10.7110   30.9780 C   0  0  0  0  0  0  0  0  0  0  0  0
   21.5380   11.3160   31.8790 C   0  0  0  0  0  0  0  0  0  0  0  0
   21.5560   12.6730   31.9360 O   0  0  0  0  0  0  0  0  0  0  0  0
   20.5300   12.9180   32.7730 N   0  0  0  0  0  0  0  0  0  0  0  0
   19.9470   11.9070   33.3490 C   0  0  0  0  0  0  0  0  0  0  0  0
   20.5660   10.7270   32.6570 C   0  0  0  0  0  0  0  0  0  0  0  0
   20.2440    9.2520   32.7740 C   0  0  0  0  0  0  0  0  0  0  0  0
   18.9390    8.7860   33.1660 C   0  0  0  0  0  0  0  0  0  0  0  0
   18.8290    7.3410   33.2170 C   0  0  0  0  0  0  0  0  0  0  0  0
   19.8690    6.4880   32.9180 N   0  0  0  0  0  0  0  0  0  0  0  0
   21.0790    6.9880   32.5480 C   0  0  0  0  0  0  0  0  0  0  0  0
   22.1040    6.0960   32.2200 N   0  0  0  0  0  0  0  0  0  0  0  0
   23.2790    6.2620   31.3970 C   0  0  0  0  0  0  0  0  0  0  0  0
   23.6000    7.4130   30.4600 C   0  0  0  0  0  0  0  0  0  0  0  0
   24.8190    7.4650   29.6280 C   0  0  0  0  0  0  0  0  0  0  0  0
   25.7640    6.3360   29.7130 C   0  0  0  0  0  0  0  0  0  0  0  0
   25.5170    5.1750   30.6020 C   0  0  0  0  0  0  0  0  0  0  0  0
   26.4110    4.0570   30.7080 N   0  0  0  0  0  0  0  0  0  0  0  0
   26.2550    2.9270   31.5320 C   0  0  0  0  0  0  0  0  0  0  0  0
   25.0860    2.8400   32.3800 C   0  0  0  0  0  0  0  0  0  0  0  0
   24.1550    3.9590   32.2920 C   0  0  0  0  0  0  0  0  0  0  0  0
   24.2860    5.1420   31.4480 C   0  0  0  0  0  0  0  0  0  0  0  0
   21.2650    8.3690   32.4780 N   0  0  0  0  0  0  0  0  0  0  0  0
   18.9450   12.1070   34.4520 C   0  0  0  0  0  0  0  0  0  0  0  0
   18.5940   11.0430   35.4250 C   0  0  0  0  0  0  0  0  0  0  0  0
   17.6370   11.3110   36.4970 C   0  0  0  0  0  0  0  0  0  0  0  0
   17.0160   12.6490   36.6130 C   0  0  0  0  0  0  0  0  0  0  0  0
   17.3570   13.7100   35.6530 C   0  0  0  0  0  0  0  0  0  0  0  0
   18.3190   13.4460   34.5710 C   0  0  0  0  0  0  0  0  0  0  0  0
  1  2  1  0  0  0  0
  2  6  2  0  0  0  0
  2  3  1  0  0  0  0
  3  4  1  0  0  0  0
  4  5  2  0  0  0  0
  5  6  1  0  0  0  0
  6  7  1  0  0  0  0
  7 23  2  0  0  0  0
  7  8  1  0  0  0  0
  8  9  2  0  0  0  0
  9 10  1  0  0  0  0
 10 11  2  0  0  0  0
 11 12  1  0  0  0  0
 12 13  1  0  0  0  0
 13 22  2  0  0  0  0
 13 14  1  0  0  0  0
 14 15  2  0  0  0  0
 15 16  1  0  0  0  0
 16 17  2  0  0  0  0
 17 22  1  0  0  0  0
 17 18  1  0  0  0  0
 18 19  2  0  0  0  0
 19 20  1  0  0  0  0
 20 21  2  0  0  0  0
 21 22  1  0  0  0  0
 11 23  1  0  0  0  0
  5 24  1  0  0  0  0
 24 29  2  0  0  0  0
 24 25  1  0  0  0  0
 25 26  2  0  0  0  0
 26 27  1  0  0  0  0
 27 28  2  0  0  0  0
 28 29  1  0  0  0  0
M  END
$$$$
vertex_jnk3_structure19_lig
