jnk.pp.1-44.sdf
  -OEChem-04100307473D

 22 24  0     0  0  0  0  0  0999 V2000
   23.2950    4.7860   30.9720 C   0  0  0  0  0  0  0  0  0  0  0  0
   22.6690    6.0770   31.3710 C   0  0  0  0  0  0  0  0  0  0  0  0
   23.0420    7.1150   30.8180 O   0  0  0  0  0  0  0  0  0  0  0  0
   21.7250    5.9640   32.3250 N   0  0  0  0  0  0  0  0  0  0  0  0
   20.8110    6.9930   32.5950 C   0  0  0  0  0  0  0  0  0  0  0  0
   19.6100    6.6030   32.9010 N   0  0  0  0  0  0  0  0  0  0  0  0
   18.6390    7.4510   33.1900 C   0  0  0  0  0  0  0  0  0  0  0  0
   18.8650    8.8150   33.1620 C   0  0  0  0  0  0  0  0  0  0  0  0
   20.1410    9.1890   32.8280 C   0  0  0  0  0  0  0  0  0  0  0  0
   21.1080    8.2810   32.5460 N   0  0  0  0  0  0  0  0  0  0  0  0
   20.3740   10.6410   32.7250 C   0  0  0  0  0  0  0  0  0  0  0  0
   21.2070   11.2000   31.8000 C   0  0  0  0  0  0  0  0  0  0  0  0
   22.1120   10.4610   30.8270 C   0  0  0  0  0  0  0  0  0  0  0  0
   21.1020   12.5760   31.7240 O   0  0  0  0  0  0  0  0  0  0  0  0
   20.1410   12.8350   32.7190 N   0  0  0  0  0  0  0  0  0  0  0  0
   19.6950   11.7780   33.3810 C   0  0  0  0  0  0  0  0  0  0  0  0
   18.7800   11.8890   34.5320 C   0  0  0  0  0  0  0  0  0  0  0  0
   18.8560   10.9620   35.5860 C   0  0  0  0  0  0  0  0  0  0  0  0
   18.0430   11.1410   36.7080 C   0  0  0  0  0  0  0  0  0  0  0  0
   17.1790   12.2400   36.7360 C   0  0  0  0  0  0  0  0  0  0  0  0
   17.0850   13.1680   35.6910 C   0  0  0  0  0  0  0  0  0  0  0  0
   17.8970   12.9900   34.5700 C   0  0  0  0  0  0  0  0  0  0  0  0
  1  2  1  0  0  0  0
  2  3  2  0  0  0  0
  2  4  1  0  0  0  0
  4  5  1  0  0  0  0
  5 10  2  0  0  0  0
  5  6  1  0  0  0  0
  6  7  2  0  0  0  0
  7  8  1  0  0  0  0
  8  9  2  0  0  0  0
  9 10  1  0  0  0  0
  9 11  1  0  0  0  0
 11 16  1  0  0  0  0
 11 12  2  0  0  0  0
 12 13  1  0  0  0  0
 12 14  1  0  0  0  0
 14 15  1  0  0  0  0
 15 16  2  0  0  0  0
 16 17  1  0  0  0  0
 17 22  2  0  0  0  0
 17 18  1  0  0  0  0
 18 19  2  0  0  0  0
 19 20  1  0  0  0  0
 20 21  2  0  0  0  0
 21 22  1  0  0  0  0
M  END
$$$$
vertex_jnk3_structure32_lig
