jnk.pp.1-32.sdf
  -OEChem-04100307473D

 26 29  0     0  0  0  0  0  0999 V2000
   22.5380   10.4150   30.5180 C   0  0  0  0  0  0  0  0  0  0  0  0
   21.6900   11.1370   31.5530 C   0  0  0  0  0  0  0  0  0  0  0  0
   21.7060   12.5010   31.5620 O   0  0  0  0  0  0  0  0  0  0  0  0
   20.7960   12.8640   32.5670 N   0  0  0  0  0  0  0  0  0  0  0  0
   20.2460   11.8650   33.1490 C   0  0  0  0  0  0  0  0  0  0  0  0
   20.7980   10.6690   32.4850 C   0  0  0  0  0  0  0  0  0  0  0  0
   20.3940    9.2430   32.6860 C   0  0  0  0  0  0  0  0  0  0  0  0
   19.1310    8.9660   33.1580 C   0  0  0  0  0  0  0  0  0  0  0  0
   18.8120    7.6280   33.3460 C   0  0  0  0  0  0  0  0  0  0  0  0
   19.7140    6.7050   33.0690 N   0  0  0  0  0  0  0  0  0  0  0  0
   20.8840    7.0170   32.6230 C   0  0  0  0  0  0  0  0  0  0  0  0
   21.7050    5.9510   32.3940 N   0  0  0  0  0  0  0  0  0  0  0  0
   22.8000    5.9350   31.5730 C   0  0  0  0  0  0  0  0  0  0  0  0
   23.0090    6.7610   30.4340 C   0  0  0  0  0  0  0  0  0  0  0  0
   24.2650    6.6840   29.7700 C   0  0  0  0  0  0  0  0  0  0  0  0
   25.2460    5.8060   30.2400 C   0  0  0  0  0  0  0  0  0  0  0  0
   24.9930    4.9840   31.3780 C   0  0  0  0  0  0  0  0  0  0  0  0
   23.7560    5.0600   32.0200 C   0  0  0  0  0  0  0  0  0  0  0  0
   23.3220    4.0650   32.7780 F   0  0  0  0  0  0  0  0  0  0  0  0
   21.2620    8.2560   32.4190 N   0  0  0  0  0  0  0  0  0  0  0  0
   19.2980   11.9930   34.2500 C   0  0  0  0  0  0  0  0  0  0  0  0
   19.3880   11.1760   35.3890 C   0  0  0  0  0  0  0  0  0  0  0  0
   18.4350   11.3170   36.4270 C   0  0  0  0  0  0  0  0  0  0  0  0
   17.4300   12.2680   36.2600 C   0  0  0  0  0  0  0  0  0  0  0  0
   17.3470   13.0820   35.1230 C   0  0  0  0  0  0  0  0  0  0  0  0
   18.2980   12.9330   34.1200 C   0  0  0  0  0  0  0  0  0  0  0  0
  1  2  1  0  0  0  0
  2  6  2  0  0  0  0
  2  3  1  0  0  0  0
  3  4  1  0  0  0  0
  4  5  2  0  0  0  0
  5  6  1  0  0  0  0
  6  7  1  0  0  0  0
  7 20  2  0  0  0  0
  7  8  1  0  0  0  0
  8  9  2  0  0  0  0
  9 10  1  0  0  0  0
 10 11  2  0  0  0  0
 11 12  1  0  0  0  0
 12 13  1  0  0  0  0
 13 18  2  0  0  0  0
 13 14  1  0  0  0  0
 14 15  2  0  0  0  0
 15 16  1  0  0  0  0
 16 17  2  0  0  0  0
 17 18  1  0  0  0  0
 18 19  1  0  0  0  0
 11 20  1  0  0  0  0
  5 21  1  0  0  0  0
 21 26  2  0  0  0  0
 21 22  1  0  0  0  0
 22 23  2  0  0  0  0
 23 24  1  0  0  0  0
 24 25  2  0  0  0  0
 25 26  1  0  0  0  0
M  END
$$$$
vertex_jnk3_structure9_lig
