jnk.pp.1-15.sdf
  -OEChem-04100307473D

 25 28  0     0  0  0  0  0  0999 V2000
   22.4260   10.4260   30.4730 C   0  0  0  0  0  0  0  0  0  0  0  0
   21.5380   11.1470   31.4950 C   0  0  0  0  0  0  0  0  0  0  0  0
   21.5900   12.4740   31.4960 O   0  0  0  0  0  0  0  0  0  0  0  0
   20.6820   12.8340   32.4690 N   0  0  0  0  0  0  0  0  0  0  0  0
   20.1100   11.8580   33.1390 C   0  0  0  0  0  0  0  0  0  0  0  0
   20.6210   10.6620   32.3880 C   0  0  0  0  0  0  0  0  0  0  0  0
   20.1900    9.2280   32.5540 C   0  0  0  0  0  0  0  0  0  0  0  0
   18.8560    8.9400   33.0530 C   0  0  0  0  0  0  0  0  0  0  0  0
   18.6010    7.5380   33.2200 C   0  0  0  0  0  0  0  0  0  0  0  0
   19.5260    6.5900   32.9340 N   0  0  0  0  0  0  0  0  0  0  0  0
   20.7690    6.8890   32.4530 C   0  0  0  0  0  0  0  0  0  0  0  0
   21.5100    5.8750   31.9490 N   0  0  0  0  0  0  0  0  0  0  0  0
   22.7210    5.7990   31.3090 C   0  0  0  0  0  0  0  0  0  0  0  0
   23.5760    4.6840   31.7010 C   0  0  0  0  0  0  0  0  0  0  0  0
   24.8960    4.4950   31.0910 C   0  0  0  0  0  0  0  0  0  0  0  0
   25.3780    5.4260   30.0750 C   0  0  0  0  0  0  0  0  0  0  0  0
   24.5540    6.5500   29.6580 C   0  0  0  0  0  0  0  0  0  0  0  0
   23.2400    6.7330   30.2680 C   0  0  0  0  0  0  0  0  0  0  0  0
   21.0930    8.2220   32.2670 N   0  0  0  0  0  0  0  0  0  0  0  0
   19.2030   12.0080   34.3270 C   0  0  0  0  0  0  0  0  0  0  0  0
   19.4530   11.2550   35.5640 C   0  0  0  0  0  0  0  0  0  0  0  0
   18.5290   11.3680   36.7120 C   0  0  0  0  0  0  0  0  0  0  0  0
   17.3540   12.2320   36.6270 C   0  0  0  0  0  0  0  0  0  0  0  0
   17.1100   12.9820   35.3960 C   0  0  0  0  0  0  0  0  0  0  0  0
   18.0350   12.8730   34.2450 C   0  0  0  0  0  0  0  0  0  0  0  0
  1  2  1  0  0  0  0
  2  6  2  0  0  0  0
  2  3  1  0  0  0  0
  3  4  1  0  0  0  0
  4  5  2  0  0  0  0
  5  6  1  0  0  0  0
  6  7  1  0  0  0  0
  7 19  2  0  0  0  0
  7  8  1  0  0  0  0
  8  9  2  0  0  0  0
  9 10  1  0  0  0  0
 10 11  2  0  0  0  0
 11 12  1  0  0  0  0
 12 13  1  0  0  0  0
 13 18  2  0  0  0  0
 13 14  1  0  0  0  0
 14 15  2  0  0  0  0
 15 16  1  0  0  0  0
 16 17  2  0  0  0  0
 17 18  1  0  0  0  0
 11 19  1  0  0  0  0
  5 20  1  0  0  0  0
 20 25  2  0  0  0  0
 20 21  1  0  0  0  0
 21 22  2  0  0  0  0
 22 23  1  0  0  0  0
 23 24  2  0  0  0  0
 24 25  1  0  0  0  0
M  END
$$$$
vertex_jnk3_structure6_lig
