jnk.pp.1-27.sdf
  -OEChem-04100307473D

 31 35  0     0  0  0  0  0  0999 V2000
   28.4520    9.5310   27.3810 C   0  0  0  0  0  0  0  0  0  0  0  0
   28.2690    8.2810   28.0560 O   0  0  0  0  0  0  0  0  0  0  0  0
   27.1290    8.2230   28.8580 C   0  0  0  0  0  0  0  0  0  0  0  0
   26.5680    9.3680   29.5020 C   0  0  0  0  0  0  0  0  0  0  0  0
   25.4240    9.2950   30.3420 C   0  0  0  0  0  0  0  0  0  0  0  0
   24.8410    8.0280   30.5230 C   0  0  0  0  0  0  0  0  0  0  0  0
   23.6920    7.8860   31.3210 C   0  0  0  0  0  0  0  0  0  0  0  0
   23.0590    6.6210   31.4990 C   0  0  0  0  0  0  0  0  0  0  0  0
   21.9180    6.3760   32.2810 N   0  0  0  0  0  0  0  0  0  0  0  0
   20.8770    7.2700   32.5410 C   0  0  0  0  0  0  0  0  0  0  0  0
   19.7300    6.7740   32.9480 N   0  0  0  0  0  0  0  0  0  0  0  0
   18.6960    7.5410   33.2150 C   0  0  0  0  0  0  0  0  0  0  0  0
   18.8120    8.9150   33.0670 C   0  0  0  0  0  0  0  0  0  0  0  0
   20.0310    9.3860   32.6410 C   0  0  0  0  0  0  0  0  0  0  0  0
   21.0480    8.5630   32.3870 N   0  0  0  0  0  0  0  0  0  0  0  0
   20.2390   10.8290   32.4580 C   0  0  0  0  0  0  0  0  0  0  0  0
   21.0260   11.4010   31.4960 C   0  0  0  0  0  0  0  0  0  0  0  0
   21.8120   10.7230   30.4050 C   0  0  0  0  0  0  0  0  0  0  0  0
   21.0680   12.7560   31.5730 O   0  0  0  0  0  0  0  0  0  0  0  0
   20.2490   12.9720   32.6800 N   0  0  0  0  0  0  0  0  0  0  0  0
   19.6890   11.9360   33.2760 C   0  0  0  0  0  0  0  0  0  0  0  0
   18.7970   12.0240   34.4800 C   0  0  0  0  0  0  0  0  0  0  0  0
   19.0680   11.2380   35.6060 C   0  0  0  0  0  0  0  0  0  0  0  0
   18.2830   11.3660   36.7570 C   0  0  0  0  0  0  0  0  0  0  0  0
   17.2280   12.2770   36.7540 C   0  0  0  0  0  0  0  0  0  0  0  0
   16.9320   13.0700   35.6400 C   0  0  0  0  0  0  0  0  0  0  0  0
   17.7250   12.9370   34.4900 C   0  0  0  0  0  0  0  0  0  0  0  0
   23.6080    5.4870   30.8580 C   0  0  0  0  0  0  0  0  0  0  0  0
   24.7630    5.6060   30.0530 C   0  0  0  0  0  0  0  0  0  0  0  0
   25.3770    6.8720   29.8920 C   0  0  0  0  0  0  0  0  0  0  0  0
   26.5080    6.9790   29.0670 C   0  0  0  0  0  0  0  0  0  0  0  0
  1  2  1  0  0  0  0
  2  3  1  0  0  0  0
  3 31  2  0  0  0  0
  3  4  1  0  0  0  0
  4  5  2  0  0  0  0
  5  6  1  0  0  0  0
  6 30  2  0  0  0  0
  6  7  1  0  0  0  0
  7  8  2  0  0  0  0
  8  9  1  0  0  0  0
  9 10  1  0  0  0  0
 10 15  2  0  0  0  0
 10 11  1  0  0  0  0
 11 12  2  0  0  0  0
 12 13  1  0  0  0  0
 13 14  2  0  0  0  0
 14 15  1  0  0  0  0
 14 16  1  0  0  0  0
 16 21  1  0  0  0  0
 16 17  2  0  0  0  0
 17 18  1  0  0  0  0
 17 19  1  0  0  0  0
 19 20  1  0  0  0  0
 20 21  2  0  0  0  0
 21 22  1  0  0  0  0
 22 27  2  0  0  0  0
 22 23  1  0  0  0  0
 23 24  2  0  0  0  0
 24 25  1  0  0  0  0
 25 26  2  0  0  0  0
 26 27  1  0  0  0  0
  8 28  1  0  0  0  0
 28 29  2  0  0  0  0
 29 30  1  0  0  0  0
 30 31  1  0  0  0  0
M  END
$$$$
vertex_jnk3_structure11_lig
