jnk.pp.1-25.sdf
  -OEChem-04100307473D

 24 26  0     0  0  0  0  0  0999 V2000
   23.2590   14.9920   32.2750 C   0  4  0  0  0  0  0  0  0  0  0  0
   21.9980   14.5090   31.6820 N   0  0  0  0  0  0  0  0  0  0  0  0
   21.5610   13.2030   31.9320 C   0  0  0  0  0  0  0  0  0  0  0  0
   22.2880   12.0330   31.4700 C   0  0  0  0  0  0  0  0  0  0  0  0
   21.7270   10.7160   31.7900 C   0  0  0  0  0  0  0  0  0  0  0  0
   20.4890   10.4840   32.5380 C   0  0  0  0  0  0  0  0  0  0  0  0
   19.8290   11.7250   32.9600 C   0  0  0  0  0  0  0  0  0  0  0  0
   20.3870   12.9590   32.6400 N   0  0  0  0  0  0  0  0  0  0  0  0
   19.9860    9.0760   32.7720 C   0  0  0  0  0  0  0  0  0  0  0  0
   18.6890    8.7590   33.3510 C   0  0  0  0  0  0  0  0  0  0  0  0
   18.3720    7.3590   33.3790 C   0  0  0  0  0  0  0  0  0  0  0  0
   19.2240    6.3820   32.9020 N   0  0  0  0  0  0  0  0  0  0  0  0
   20.4350    6.6860   32.3590 C   0  0  0  0  0  0  0  0  0  0  0  0
   21.2220    5.6450   31.8410 N   0  0  0  0  0  0  0  0  0  0  0  0
   22.4620    5.6700   31.1490 C   0  0  0  0  0  0  0  0  0  0  0  0
   23.2430    4.4210   31.2220 C   0  0  0  0  0  0  0  0  0  0  0  0
   24.5540    4.3050   30.5930 C   0  0  0  0  0  0  0  0  0  0  0  0
   25.1310    5.4400   29.8710 C   0  0  0  0  0  0  0  0  0  0  0  0
   24.3720    6.7040   29.7750 C   0  0  0  0  0  0  0  0  0  0  0  0
   23.0560    6.8220   30.4010 C   0  0  0  0  0  0  0  0  0  0  0  0
   26.4480    5.3530   29.2800 N   0  3  0  0  0  0  0  0  0  0  0  0
   26.8290    6.4200   28.8180 O   0  0  0  0  0  0  0  0  0  0  0  0
   27.0790    4.2960   29.2740 O   0  5  0  0  0  0  0  0  0  0  0  0
   20.7920    8.0050   32.3070 N   0  0  0  0  0  0  0  0  0  0  0  0
  1  2  1  0  0  0  0
  2  3  1  0  0  0  0
  3  8  2  0  0  0  0
  3  4  1  0  0  0  0
  4  5  2  0  0  0  0
  5  6  1  0  0  0  0
  6  7  2  0  0  0  0
  7  8  1  0  0  0  0
  6  9  1  0  0  0  0
  9 24  2  0  0  0  0
  9 10  1  0  0  0  0
 10 11  2  0  0  0  0
 11 12  1  0  0  0  0
 12 13  2  0  0  0  0
 13 14  1  0  0  0  0
 14 15  1  0  0  0  0
 15 20  2  0  0  0  0
 15 16  1  0  0  0  0
 16 17  2  0  0  0  0
 17 18  1  0  0  0  0
 18 19  2  0  0  0  0
 19 20  1  0  0  0  0
 18 21  1  0  0  0  0
 21 22  2  0  0  0  0
 21 23  1  0  0  0  0
 13 24  1  0  0  0  0
M  CHG  2  21   1  23  -1
M  RAD  1   1   2
M  END
$$$$
vertex_jnk3_structure41_lig
