jnk.pp.1-62.sdf
  -OEChem-04100307473D

 33 37  0     0  0  0  0  0  0999 V2000
   26.6080   12.6850   30.3820 C   0  4  0  0  0  0  0  0  0  0  0  0
   27.3690   13.8770   30.5240 C   0  0  0  0  0  0  0  0  0  0  0  0
   26.8350   14.9500   31.2550 C   0  0  0  0  0  0  0  0  0  0  0  0
   25.5670   14.8710   31.8450 C   0  0  0  0  0  0  0  0  0  0  0  0
   24.8200   13.6890   31.6990 C   0  0  0  0  0  0  0  0  0  0  0  0
   25.3220   12.5630   30.9680 C   0  0  0  0  0  0  0  0  0  0  0  0
   24.5060   11.2640   30.8440 C   0  0  0  0  0  0  0  0  0  0  0  0
   24.8380   10.2170   30.2600 O   0  0  0  0  0  0  0  0  0  0  0  0
   23.3170   11.3480   31.4430 N   0  0  0  0  0  0  0  0  0  0  0  0
   22.4280   10.3070   31.6950 C   0  0  0  0  0  0  0  0  0  0  0  0
   21.3250   10.5970   32.5170 C   0  0  0  0  0  0  0  0  0  0  0  0
   20.3390    9.6100   32.7820 C   0  0  0  0  0  0  0  0  0  0  0  0
   20.4830    8.3590   32.2190 C   0  0  0  0  0  0  0  0  0  0  0  0
   19.6890    7.1220   32.3520 C   0  0  0  0  0  0  0  0  0  0  0  0
   18.5420    6.8580   32.9780 N   0  0  0  0  0  0  0  0  0  0  0  0
   17.7870    7.9460   33.4330 O   0  0  0  0  0  0  0  0  0  0  0  0
   20.5270    6.1750   31.5810 C   0  0  0  0  0  0  0  0  0  0  0  0
   20.3640    4.9630   31.5500 O   0  0  0  0  0  0  0  0  0  0  0  0
   21.4970    6.8020   30.9480 N   0  0  0  0  0  0  0  0  0  0  0  0
   22.3280    6.2520   29.8770 C   0  0  0  0  0  0  0  0  0  0  0  0
   23.4830    5.4980   30.4400 C   0  0  0  0  0  0  0  0  0  0  0  0
   23.2300    4.4060   31.3020 C   0  0  0  0  0  0  0  0  0  0  0  0
   24.3130    3.7210   31.8170 C   0  0  0  0  0  0  0  0  0  0  0  0
   24.0240    2.6960   32.5680 F   0  0  0  0  0  0  0  0  0  0  0  0
   25.6310    4.0730   31.5210 C   0  0  0  0  0  0  0  0  0  0  0  0
   25.8740    5.1540   30.6610 C   0  0  0  0  0  0  0  0  0  0  0  0
   27.3010    5.5170   30.2550 C   0  0  0  0  0  0  0  0  0  0  0  0
   27.1500    6.1030   28.9750 O   0  0  0  0  0  0  0  0  0  0  0  0
   26.3470    7.3000   29.0930 C   0  0  0  0  0  0  0  0  0  0  0  0
   24.9740    6.9670   29.3280 O   0  0  0  0  0  0  0  0  0  0  0  0
   24.7940    5.8680   30.1210 C   0  0  0  0  0  0  0  0  0  0  0  0
   21.5670    8.0860   31.4170 C   0  0  0  0  0  0  0  0  0  0  0  0
   22.5640    9.0210   31.1260 C   0  0  0  0  0  0  0  0  0  0  0  0
  1  6  2  0  0  0  0
  1  2  1  0  0  0  0
  2  3  2  0  0  0  0
  3  4  1  0  0  0  0
  4  5  2  0  0  0  0
  5  6  1  0  0  0  0
  6  7  1  0  0  0  0
  7  8  2  0  0  0  0
  7  9  1  0  0  0  0
  9 10  1  0  0  0  0
 10 33  2  0  0  0  0
 10 11  1  0  0  0  0
 11 12  2  0  0  0  0
 12 13  1  0  0  0  0
 13 32  2  0  0  0  0
 13 14  1  0  0  0  0
 14 15  2  0  0  0  0
 15 16  1  0  0  0  0
 14 17  1  0  0  0  0
 17 18  2  0  0  0  0
 17 19  1  0  0  0  0
 19 20  1  0  0  0  0
 20 21  1  0  0  0  0
 21 31  2  0  0  0  0
 21 22  1  0  0  0  0
 22 23  2  0  0  0  0
 23 24  1  0  0  0  0
 23 25  1  0  0  0  0
 25 26  2  0  0  0  0
 26 31  1  0  0  0  0
 26 27  1  0  0  0  0
 27 28  1  0  0  0  0
 28 29  1  0  0  0  0
 29 30  1  0  0  0  0
 30 31  1  0  0  0  0
 19 32  1  0  0  0  0
 32 33  1  0  0  0  0
M  RAD  1   1   2
M  END
$$$$
vertex_jnk3_structure43_lig
