jnk.pp.1-5.sdf
  -OEChem-12220712583D

 37 40  0     0  0  0  0  0  0999 V2000
   23.5317    3.1978   32.2647 C   0  0  0  0  0  0  0  0  0  0  0  0
   24.7031    2.8955   31.5807 C   0  0  0  0  0  0  0  0  0  0  0  0
   22.9826    4.4847   32.1996 C   0  0  0  0  0  0  0  0  0  0  0  0
   23.6869   10.2687   31.3407 C   0  0  0  0  0  0  0  0  0  0  0  0
   22.4115    9.3693   29.4968 C   0  0  0  0  0  0  0  0  0  0  0  0
   25.3476    3.8915   30.8577 C   0  0  0  0  0  0  0  0  0  0  0  0
   23.0455   11.4882   31.1706 C   0  0  0  0  0  0  0  0  0  0  0  0
   21.8818   10.6211   29.2478 C   0  0  0  0  0  0  0  0  0  0  0  0
   21.5590    8.4043   32.8441 C   0  0  0  0  0  0  0  0  0  0  0  0
   20.5725    6.6672   31.5604 C   0  0  0  0  0  0  0  0  0  0  0  0
   20.2899    8.8137   33.2183 C   0  0  0  0  0  0  0  0  0  0  0  0
   19.3416    7.1442   31.9940 C   0  0  0  0  0  0  0  0  0  0  0  0
   23.3334    9.1894   30.5269 C   0  0  0  0  0  0  0  0  0  0  0  0
   23.6141    5.5067   31.4816 C   0  0  0  0  0  0  0  0  0  0  0  0
   21.7263    7.3199   31.9713 C   0  0  0  0  0  0  0  0  0  0  0  0
   24.8136    5.1833   30.8292 C   0  0  0  0  0  0  0  0  0  0  0  0
   22.1412   11.6501   30.1319 C   0  0  0  0  0  0  0  0  0  0  0  0
   23.0726    6.9032   31.4275 C   0  0  0  0  0  0  0  0  0  0  0  0
   23.8291    7.8254   30.7695 C   0  0  0  0  0  0  0  0  0  0  0  0
   25.1488    7.4810   30.1427 C   0  0  0  0  0  0  0  0  0  0  0  0
   19.1702    8.1992   32.8124 N   0  0  0  0  0  0  0  0  0  0  0  0
   25.5296    6.1765   30.1706 N   0  0  0  0  0  0  0  0  0  0  0  0
   25.8617    8.3266   29.6079 O   0  0  0  0  0  0  0  0  0  0  0  0
   21.5223   12.8257   29.9679 F   0  0  0  0  0  0  0  0  0  0  0  0
   23.0385    2.4289   32.8546 H   0  0  0  0  0  0  0  0  0  0  0  0
   25.1188    1.8919   31.6246 H   0  0  0  0  0  0  0  0  0  0  0  0
   22.0681    4.6769   32.7529 H   0  0  0  0  0  0  0  0  0  0  0  0
   24.3961   10.1517   32.1515 H   0  0  0  0  0  0  0  0  0  0  0  0
   22.0910    8.5229   28.8982 H   0  0  0  0  0  0  0  0  0  0  0  0
   26.2745    3.6594   30.3410 H   0  0  0  0  0  0  0  0  0  0  0  0
   23.2439   12.3115   31.8396 H   0  0  0  0  0  0  0  0  0  0  0  0
   21.2387   10.7795   28.3934 H   0  0  0  0  0  0  0  0  0  0  0  0
   22.4086    8.9568   33.2222 H   0  0  0  0  0  0  0  0  0  0  0  0
   20.6230    5.8286   30.8760 H   0  0  0  0  0  0  0  0  0  0  0  0
   20.1463    9.6673   33.8731 H   0  0  0  0  0  0  0  0  0  0  0  0
   18.4194    6.6911   31.6586 H   0  0  0  0  0  0  0  0  0  0  0  0
   26.4169    5.9709   29.7316 H   0  0  0  0  0  0  0  0  0  0  0  0
  1  2  2  0  0  0  0
  1  3  1  0  0  0  0
  2  6  1  0  0  0  0
  3 14  2  0  0  0  0
  4  7  2  0  0  0  0
  4 13  1  0  0  0  0
  5  8  1  0  0  0  0
  5 13  2  0  0  0  0
  6 16  2  0  0  0  0
  7 17  1  0  0  0  0
  8 17  2  0  0  0  0
  9 11  2  0  0  0  0
  9 15  1  0  0  0  0
 10 12  1  0  0  0  0
 10 15  2  0  0  0  0
 11 21  1  0  0  0  0
 12 21  2  0  0  0  0
 13 19  1  0  0  0  0
 14 16  1  0  0  0  0
 14 18  1  0  0  0  0
 15 18  1  0  0  0  0
 16 22  1  0  0  0  0
 17 24  1  0  0  0  0
 18 19  2  0  0  0  0
 19 20  1  0  0  0  0
 20 22  1  0  0  0  0
 20 23  2  0  0  0  0
  1 25  1  0  0  0  0
  2 26  1  0  0  0  0
  3 27  1  0  0  0  0
  4 28  1  0  0  0  0
  5 29  1  0  0  0  0
  6 30  1  0  0  0  0
  7 31  1  0  0  0  0
  8 32  1  0  0  0  0
  9 33  1  0  0  0  0
 10 34  1  0  0  0  0
 11 35  1  0  0  0  0
 12 36  1  0  0  0  0
 22 37  1  0  0  0  0
M  END
$$$$
