jnk.pp.1-10.sdf
  -OEChem-04100307473D

 26 29  0     0  0  0  0  0  0999 V2000
   22.4440   10.3000   30.5180 C   0  0  0  0  0  0  0  0  0  0  0  0
   21.5310   11.0930   31.4070 C   0  0  0  0  0  0  0  0  0  0  0  0
   21.5620   12.4630   31.3440 O   0  0  0  0  0  0  0  0  0  0  0  0
   20.7020   12.8410   32.3670 N   0  0  0  0  0  0  0  0  0  0  0  0
   20.1420   11.8860   33.0620 C   0  0  0  0  0  0  0  0  0  0  0  0
   20.6660   10.6560   32.3730 C   0  0  0  0  0  0  0  0  0  0  0  0
   20.2240    9.2320   32.5910 C   0  0  0  0  0  0  0  0  0  0  0  0
   18.8520    8.9970   32.9920 C   0  0  0  0  0  0  0  0  0  0  0  0
   18.5350    7.6110   33.1940 C   0  0  0  0  0  0  0  0  0  0  0  0
   19.4640    6.6200   33.0150 N   0  0  0  0  0  0  0  0  0  0  0  0
   20.7400    6.8990   32.6290 C   0  0  0  0  0  0  0  0  0  0  0  0
   21.6300    5.8630   32.4150 N   0  0  0  0  0  0  0  0  0  0  0  0
   22.8850    6.0820   31.7010 C   0  0  1  0  0  0  0  0  0  0  0  0
   23.6670    4.7720   31.8030 C   0  0  0  0  0  0  0  0  0  0  0  0
   25.0150    4.8240   31.0980 C   0  0  0  0  0  0  0  0  0  0  0  0
   24.9380    5.3090   29.6480 C   0  0  2  0  0  0  0  0  0  0  0  0
   26.2560    5.7150   29.2480 O   0  0  0  0  0  0  0  0  0  0  0  0
   23.9640    6.4690   29.4080 C   0  0  0  0  0  0  0  0  0  0  0  0
   22.6740    6.3780   30.2100 C   0  0  0  0  0  0  0  0  0  0  0  0
   21.1450    8.2020   32.4120 N   0  0  0  0  0  0  0  0  0  0  0  0
   19.2210   12.0250   34.2440 C   0  0  0  0  0  0  0  0  0  0  0  0
   19.4580   11.2010   35.4500 C   0  0  0  0  0  0  0  0  0  0  0  0
   18.5300   11.2730   36.5850 C   0  0  0  0  0  0  0  0  0  0  0  0
   17.3750   12.1610   36.5280 C   0  0  0  0  0  0  0  0  0  0  0  0
   17.1500   12.9840   35.3260 C   0  0  0  0  0  0  0  0  0  0  0  0
   18.0710   12.9110   34.1940 C   0  0  0  0  0  0  0  0  0  0  0  0
  1  2  1  0  0  0  0
  2  6  2  0  0  0  0
  2  3  1  0  0  0  0
  3  4  1  0  0  0  0
  4  5  2  0  0  0  0
  5  6  1  0  0  0  0
  6  7  1  0  0  0  0
  7 20  2  0  0  0  0
  7  8  1  0  0  0  0
  8  9  2  0  0  0  0
  9 10  1  0  0  0  0
 10 11  2  0  0  0  0
 11 12  1  0  0  0  0
 12 13  1  0  0  0  0
 13 19  1  0  0  0  0
 13 14  1  0  0  0  0
 14 15  1  0  0  0  0
 15 16  1  0  0  0  0
 16 17  1  0  0  0  0
 16 18  1  0  0  0  0
 18 19  1  0  0  0  0
 11 20  1  0  0  0  0
  5 21  1  0  0  0  0
 21 26  2  0  0  0  0
 21 22  1  0  0  0  0
 22 23  2  0  0  0  0
 23 24  1  0  0  0  0
 24 25  2  0  0  0  0
 25 26  1  0  0  0  0
M  END
$$$$
vertex_jnk3_structure25_lig
