jnk.pp.1-47.sdf
  -OEChem-04100307473D

 27 30  0     0  0  0  0  0  0999 V2000
   18.5410   14.3140   32.7730 Cl  0  0  0  0  0  0  0  0  0  0  0  0
   19.6000   12.9900   32.4110 C   0  0  0  0  0  0  0  0  0  0  0  0
   21.0020   13.2400   32.0710 C   0  0  0  0  0  0  0  0  0  0  0  0
   21.9430   12.1170   31.9340 C   0  0  0  0  0  0  0  0  0  0  0  0
   21.4960   10.7300   32.1380 C   0  0  0  0  0  0  0  0  0  0  0  0
   20.0940   10.4220   32.4810 C   0  0  0  0  0  0  0  0  0  0  0  0
   19.1670   11.5930   32.6050 C   0  0  0  0  0  0  0  0  0  0  0  0
   19.6100    9.0060   32.7540 C   0  0  0  0  0  0  0  0  0  0  0  0
   18.3980    8.6940   33.4530 C   0  0  0  0  0  0  0  0  0  0  0  0
   18.1450    7.3600   33.5700 N   0  0  0  0  0  0  0  0  0  0  0  0
   19.1870    6.7900   32.9550 N   0  0  0  0  0  0  0  0  0  0  0  0
   20.1110    7.6100   32.4370 C   0  0  0  0  0  0  0  0  0  0  0  0
   21.3420    7.0330   31.7450 C   0  0  0  0  0  0  0  0  0  0  0  0
   22.0060    7.5700   30.6260 C   0  0  0  0  0  0  0  0  0  0  0  0
   22.9180    6.6510   30.1830 N   0  0  0  0  0  0  0  0  0  0  0  0
   22.8210    5.5800   31.0010 C   0  0  0  0  0  0  0  0  0  0  0  0
   21.8460    5.7470   32.0200 C   0  0  0  0  0  0  0  0  0  0  0  0
   23.5060    4.3590   30.9820 C   0  0  0  0  0  0  0  0  0  0  0  0
   24.4790    4.2130   30.2390 O   0  0  0  0  0  0  0  0  0  0  0  0
   23.0850    3.3590   31.7820 N   0  0  0  0  0  0  0  0  0  0  0  0
   23.8290    2.0920   31.8940 C   0  0  0  0  0  0  0  0  0  0  0  0
   25.0080    2.1750   32.8440 C   0  0  0  0  0  0  0  0  0  0  0  0
   24.8420    1.7660   34.2450 C   0  0  0  0  0  0  0  0  0  0  0  0
   25.9610    1.8910   35.1940 C   0  0  0  0  0  0  0  0  0  0  0  0
   27.2580    2.4240   34.7590 C   0  0  0  0  0  0  0  0  0  0  0  0
   27.4260    2.8330   33.3520 C   0  0  0  0  0  0  0  0  0  0  0  0
   26.3060    2.7090   32.3960 C   0  0  0  0  0  0  0  0  0  0  0  0
  1  2  1  0  0  0  0
  2  7  2  0  0  0  0
  2  3  1  0  0  0  0
  3  4  2  0  0  0  0
  4  5  1  0  0  0  0
  5  6  2  0  0  0  0
  6  7  1  0  0  0  0
  6  8  1  0  0  0  0
  8 12  1  0  0  0  0
  8  9  2  0  0  0  0
  9 10  1  0  0  0  0
 10 11  1  0  0  0  0
 11 12  2  0  0  0  0
 12 13  1  0  0  0  0
 13 17  1  0  0  0  0
 13 14  2  0  0  0  0
 14 15  1  0  0  0  0
 15 16  1  0  0  0  0
 16 17  2  0  0  0  0
 16 18  1  0  0  0  0
 18 19  2  0  0  0  0
 18 20  1  0  0  0  0
 20 21  1  0  0  0  0
 21 22  1  0  0  0  0
 22 27  2  0  0  0  0
 22 23  1  0  0  0  0
 23 24  2  0  0  0  0
 24 25  1  0  0  0  0
 25 26  2  0  0  0  0
 26 27  1  0  0  0  0
M  END
$$$$
vertex_jnk3_structure48_lig
