jnk.pp.1-37.sdf
  -OEChem-04100307473D

 29 31  0     0  0  0  0  0  0999 V2000
   19.9240   15.7830   29.4950 C   0  0  0  0  0  0  0  0  0  0  0  0
   21.1830   16.0230   30.3290 C   0  0  0  0  0  0  0  0  0  0  0  0
   21.8610   14.7650   30.6800 O   0  0  0  0  0  0  0  0  0  0  0  0
   21.4830   14.0890   31.7460 C   0  0  0  0  0  0  0  0  0  0  0  0
   21.1910   14.6720   32.7430 O   0  0  0  0  0  0  0  0  0  0  0  0
   21.4010   12.6990   31.6110 C   0  0  0  0  0  0  0  0  0  0  0  0
   21.9180   12.0080   30.5850 N   0  0  0  0  0  0  0  0  0  0  0  0
   21.6410   10.6890   30.6820 C   0  0  0  0  0  0  0  0  0  0  0  0
   22.0630    9.7350   29.6210 C   0  0  0  0  0  0  0  0  0  0  0  0
   20.8850   10.4480   31.8560 C   0  0  0  0  0  0  0  0  0  0  0  0
   20.7470   11.7360   32.4360 C   0  0  0  0  0  0  0  0  0  0  0  0
   20.0530   12.0360   33.7180 C   0  0  0  0  0  0  0  0  0  0  0  0
   20.3140    9.0930   32.2970 C   0  0  0  0  0  0  0  0  0  0  0  0
   19.0000    8.9160   32.9140 C   0  0  0  0  0  0  0  0  0  0  0  0
   18.6450    7.5310   33.1640 C   0  0  0  0  0  0  0  0  0  0  0  0
   19.4710    6.4640   32.8440 N   0  0  0  0  0  0  0  0  0  0  0  0
   20.7010    6.6440   32.2630 C   0  0  0  0  0  0  0  0  0  0  0  0
   21.4900    5.5310   31.9040 N   0  0  0  0  0  0  0  0  0  0  0  0
   22.7970    5.4240   31.3410 C   0  0  0  0  0  0  0  0  0  0  0  0
   23.7770    6.5410   31.1130 C   0  0  0  0  0  0  0  0  0  0  0  0
   25.1060    6.3220   30.5710 C   0  0  0  0  0  0  0  0  0  0  0  0
   25.5140    4.9610   30.2290 C   0  0  0  0  0  0  0  0  0  0  0  0
   24.5900    3.8310   30.4300 C   0  0  0  0  0  0  0  0  0  0  0  0
   23.2500    4.0720   30.9800 C   0  0  0  0  0  0  0  0  0  0  0  0
   27.1190    4.7310   29.5860 S   0  0  0  0  0  0  0  0  0  0  0  0
   27.0450    3.8160   28.4690 O   0  0  0  0  0  0  0  0  0  0  0  0
   27.7600    6.0110   29.4100 O   0  0  0  0  0  0  0  0  0  0  0  0
   28.0510    3.9820   30.8710 N   0  0  0  0  0  0  0  0  0  0  0  0
   21.0920    7.9250   32.0120 N   0  0  0  0  0  0  0  0  0  0  0  0
  1  2  1  0  0  0  0
  2  3  1  0  0  0  0
  3  4  1  0  0  0  0
  4  5  2  0  0  0  0
  4  6  1  0  0  0  0
  6 11  2  0  0  0  0
  6  7  1  0  0  0  0
  7  8  1  0  0  0  0
  8  9  1  0  0  0  0
  8 10  2  0  0  0  0
 10 11  1  0  0  0  0
 11 12  1  0  0  0  0
 10 13  1  0  0  0  0
 13 29  2  0  0  0  0
 13 14  1  0  0  0  0
 14 15  2  0  0  0  0
 15 16  1  0  0  0  0
 16 17  2  0  0  0  0
 17 18  1  0  0  0  0
 18 19  1  0  0  0  0
 19 24  2  0  0  0  0
 19 20  1  0  0  0  0
 20 21  2  0  0  0  0
 21 22  1  0  0  0  0
 22 23  2  0  0  0  0
 23 24  1  0  0  0  0
 22 25  1  0  0  0  0
 25 26  2  0  0  0  0
 25 27  2  0  0  0  0
 25 28  1  0  0  0  0
 17 29  1  0  0  0  0
M  END
$$$$
vertex_jnk3_structure51_lig
