jnk.pp.1-29.sdf
  -OEChem-12220712583D

 36 38  0     0  0  0  0  0  0999 V2000
   21.4631   11.9892   31.8152 C   0  0  0  0  0  0  0  0  0  0  0  0
   21.4998   12.9600   31.1115 C   0  0  0  0  0  0  0  0  0  0  0  0
   25.5804    7.9459   29.5606 C   0  0  0  0  0  0  0  0  0  0  0  0
   25.5598    6.6468   30.0497 C   0  0  0  0  0  0  0  0  0  0  0  0
   24.4188    8.7107   29.5886 C   0  0  0  0  0  0  0  0  0  0  0  0
   24.4030    6.1524   30.6495 C   0  0  0  0  0  0  0  0  0  0  0  0
   23.2417    8.1787   30.1192 C   0  0  0  0  0  0  0  0  0  0  0  0
   18.4920    7.3911   32.9769 C   0  0  0  0  0  0  0  0  0  0  0  0
   21.1539   10.7473   32.4285 C   0  0  0  0  0  0  0  0  0  0  0  0
   20.7997    8.6284   32.4070 C   0  0  0  0  0  0  0  0  0  0  0  0
   23.2331    6.9241   30.7232 C   0  0  0  0  0  0  0  0  0  0  0  0
   19.7038    9.2243   33.0269 C   0  0  0  0  0  0  0  0  0  0  0  0
   20.6736    7.2538   32.1550 C   0  0  0  0  0  0  0  0  0  0  0  0
   19.2245   11.5324   33.8242 C   0  0  0  0  0  0  0  0  0  0  0  0
   21.4311   13.9710   30.0495 C   0  0  0  0  0  0  0  0  0  0  0  0
   22.0448   13.4331   28.7655 C   0  0  0  0  0  0  0  0  0  0  0  0
   18.5295    8.6712   33.3540 N   0  0  0  0  0  0  0  0  0  0  0  0
   19.4803    6.6608   32.4446 N   0  0  0  0  0  0  0  0  0  0  0  0
   21.7394    9.6053   32.1279 N   0  0  0  0  0  0  0  0  0  0  0  0
   20.0344   10.5366   33.1778 N   0  0  0  0  0  0  0  0  0  0  0  0
   23.3686   12.9336   28.8951 O   0  0  0  0  0  0  0  0  0  0  0  0
   21.8465    6.1339   31.4765 S   0  0  0  0  0  0  0  0  0  0  0  0
   26.4915    8.3528   29.1307 H   0  0  0  0  0  0  0  0  0  0  0  0
   26.4487    6.0249   29.9907 H   0  0  0  0  0  0  0  0  0  0  0  0
   24.4176    9.7113   29.1641 H   0  0  0  0  0  0  0  0  0  0  0  0
   24.4229    5.1428   31.0567 H   0  0  0  0  0  0  0  0  0  0  0  0
   22.3390    8.7733   30.0439 H   0  0  0  0  0  0  0  0  0  0  0  0
   17.5474    6.8824   33.0908 H   0  0  0  0  0  0  0  0  0  0  0  0
   18.3729   11.7642   33.1811 H   0  0  0  0  0  0  0  0  0  0  0  0
   18.8965   11.1308   34.7858 H   0  0  0  0  0  0  0  0  0  0  0  0
   19.8185   12.4303   34.0033 H   0  0  0  0  0  0  0  0  0  0  0  0
   20.3868   14.2470   29.8623 H   0  0  0  0  0  0  0  0  0  0  0  0
   21.9143   14.8993   30.3226 H   0  0  0  0  0  0  0  0  0  0  0  0
   21.4388   12.6153   28.3827 H   0  0  0  0  0  0  0  0  0  0  0  0
   22.0745   14.2269   28.0191 H   0  0  0  0  0  0  0  0  0  0  0  0
   23.3552   12.2264   29.5652 H   0  0  0  0  0  0  0  0  0  0  0  0
  1  2  3  0  0  0  0
  1  9  1  0  0  0  0
  2 15  1  0  0  0  0
  3  4  2  0  0  0  0
  3  5  1  0  0  0  0
  4  6  1  0  0  0  0
  5  7  2  0  0  0  0
  6 11  2  0  0  0  0
  7 11  1  0  0  0  0
  8 17  2  0  0  0  0
  8 18  1  0  0  0  0
  9 19  2  0  0  0  0
  9 20  1  0  0  0  0
 10 12  2  0  0  0  0
 10 13  1  0  0  0  0
 10 19  1  0  0  0  0
 11 22  1  0  0  0  0
 12 17  1  0  0  0  0
 12 20  1  0  0  0  0
 13 18  2  0  0  0  0
 13 22  1  0  0  0  0
 14 20  1  0  0  0  0
 15 16  1  0  0  0  0
 16 21  1  0  0  0  0
  3 23  1  0  0  0  0
  4 24  1  0  0  0  0
  5 25  1  0  0  0  0
  6 26  1  0  0  0  0
  7 27  1  0  0  0  0
  8 28  1  0  0  0  0
 14 29  1  0  0  0  0
 14 30  1  0  0  0  0
 14 31  1  0  0  0  0
 15 32  1  0  0  0  0
 15 33  1  0  0  0  0
 16 34  1  0  0  0  0
 16 35  1  0  0  0  0
 21 36  1  0  0  0  0
M  END
$$$$
