jnk.pp.1-30.sdf
  -OEChem-12220712583D

 24 26  0     0  0  0  0  0  0999 V2000
   23.6812    7.3126   30.1811 C   0  0  0  0  0  0  0  0  0  0  0  0
   22.4296    5.9734   31.7482 C   0  0  0  0  0  0  0  0  0  0  0  0
   24.4949    6.2195   29.8814 C   0  0  0  0  0  0  0  0  0  0  0  0
   23.2381    4.8742   31.4434 C   0  0  0  0  0  0  0  0  0  0  0  0
   18.7852    7.5449   32.8190 C   0  0  0  0  0  0  0  0  0  0  0  0
   20.0600   11.6847   33.2340 C   0  0  0  0  0  0  0  0  0  0  0  0
   20.3880    9.6684   32.5986 C   0  0  0  0  0  0  0  0  0  0  0  0
   22.6409    7.2000   31.1160 C   0  0  0  0  0  0  0  0  0  0  0  0
   24.2675    5.0099   30.5220 C   0  0  0  0  0  0  0  0  0  0  0  0
   19.1779    9.6699   33.2714 C   0  0  0  0  0  0  0  0  0  0  0  0
   20.7877    8.4418   32.0578 C   0  0  0  0  0  0  0  0  0  0  0  0
   18.3279    8.6494   33.4388 N   0  0  0  0  0  0  0  0  0  0  0  0
   19.9401    7.3807   32.1412 N   0  0  0  0  0  0  0  0  0  0  0  0
   20.9321   10.9365   32.5919 N   0  0  0  0  0  0  0  0  0  0  0  0
   19.0043   10.9528   33.6982 N   0  0  0  0  0  0  0  0  0  0  0  0
   21.9727    8.3781   31.3452 O   0  0  0  0  0  0  0  0  0  0  0  0
   25.0519    3.9590   30.2498 F   0  0  0  0  0  0  0  0  0  0  0  0
   23.8628    8.2661   29.6896 H   0  0  0  0  0  0  0  0  0  0  0  0
   21.6618    5.8415   32.5022 H   0  0  0  0  0  0  0  0  0  0  0  0
   25.3022    6.3075   29.1624 H   0  0  0  0  0  0  0  0  0  0  0  0
   23.0803    3.9205   31.9360 H   0  0  0  0  0  0  0  0  0  0  0  0
   18.1378    6.6770   32.8699 H   0  0  0  0  0  0  0  0  0  0  0  0
   20.1443   12.7502   33.3989 H   0  0  0  0  0  0  0  0  0  0  0  0
   18.2052   11.2938   34.2107 H   0  0  0  0  0  0  0  0  0  0  0  0
  1  3  2  0  0  0  0
  1  8  1  0  0  0  0
  2  4  1  0  0  0  0
  2  8  2  0  0  0  0
  3  9  1  0  0  0  0
  4  9  2  0  0  0  0
  5 12  2  0  0  0  0
  5 13  1  0  0  0  0
  6 14  2  0  0  0  0
  6 15  1  0  0  0  0
  7 10  2  0  0  0  0
  7 11  1  0  0  0  0
  7 14  1  0  0  0  0
  8 16  1  0  0  0  0
  9 17  1  0  0  0  0
 10 12  1  0  0  0  0
 10 15  1  0  0  0  0
 11 13  2  0  0  0  0
 11 16  1  0  0  0  0
  1 18  1  0  0  0  0
  2 19  1  0  0  0  0
  3 20  1  0  0  0  0
  4 21  1  0  0  0  0
  5 22  1  0  0  0  0
  6 23  1  0  0  0  0
 15 24  1  0  0  0  0
M  END
$$$$
