jnk.pp.1-35.sdf
  -OEChem-04100307473D

 31 35  0     0  0  0  0  0  0999 V2000
   22.3170   10.7100   30.4120 C   0  0  0  0  0  0  0  0  0  0  0  0
   23.7000   10.5130   30.9450 N   0  0  0  0  0  0  0  0  0  0  0  0
   24.3350   11.7580   31.4280 C   0  0  0  0  0  0  0  0  0  0  0  0
   25.8150   11.5510   31.7230 C   0  0  0  0  0  0  0  0  0  0  0  0
   26.4460   11.0560   30.5320 O   0  0  0  0  0  0  0  0  0  0  0  0
   25.9550    9.7490   30.1920 C   0  0  0  0  0  0  0  0  0  0  0  0
   24.4670    9.8390   29.8620 C   0  0  0  0  0  0  0  0  0  0  0  0
   21.3840   11.3950   31.3850 C   0  0  0  0  0  0  0  0  0  0  0  0
   21.3880   12.7480   31.4020 O   0  0  0  0  0  0  0  0  0  0  0  0
   20.4620   13.0340   32.4000 N   0  0  0  0  0  0  0  0  0  0  0  0
   19.9920   12.0230   33.0770 C   0  0  0  0  0  0  0  0  0  0  0  0
   20.5330   10.8550   32.3150 C   0  0  0  0  0  0  0  0  0  0  0  0
   20.1350    9.4050   32.5310 C   0  0  0  0  0  0  0  0  0  0  0  0
   18.7460    9.0840   32.8910 C   0  0  0  0  0  0  0  0  0  0  0  0
   18.4110    7.6870   33.1210 C   0  0  0  0  0  0  0  0  0  0  0  0
   19.4140    6.7300   32.9780 N   0  0  0  0  0  0  0  0  0  0  0  0
   20.7380    6.9670   32.6310 C   0  0  0  0  0  0  0  0  0  0  0  0
   21.6040    5.8590   32.4460 N   0  0  0  0  0  0  0  0  0  0  0  0
   22.6980    5.6770   31.5410 C   0  0  0  0  0  0  0  0  0  0  0  0
   23.6480    4.6250   31.9020 C   0  0  0  0  0  0  0  0  0  0  0  0
   24.8430    4.3870   31.0780 C   0  0  0  0  0  0  0  0  0  0  0  0
   25.0960    5.1960   29.8820 C   0  0  0  0  0  0  0  0  0  0  0  0
   24.1560    6.2500   29.4980 C   0  0  0  0  0  0  0  0  0  0  0  0
   22.9660    6.4940   30.3130 C   0  0  0  0  0  0  0  0  0  0  0  0
   21.1230    8.3620   32.4040 C   0  0  0  0  0  0  0  0  0  0  0  0
   19.1500   12.0630   34.3150 C   0  0  0  0  0  0  0  0  0  0  0  0
   19.5430   11.2410   35.4780 C   0  0  0  0  0  0  0  0  0  0  0  0
   18.6920   11.2160   36.6730 C   0  0  0  0  0  0  0  0  0  0  0  0
   17.4610   12.0020   36.7140 C   0  0  0  0  0  0  0  0  0  0  0  0
   17.0820   12.8210   35.5500 C   0  0  0  0  0  0  0  0  0  0  0  0
   17.9260   12.8500   34.3580 C   0  0  0  0  0  0  0  0  0  0  0  0
  1  2  1  0  0  0  0
  2  7  1  0  0  0  0
  2  3  1  0  0  0  0
  3  4  1  0  0  0  0
  4  5  1  0  0  0  0
  5  6  1  0  0  0  0
  6  7  1  0  0  0  0
  1  8  1  0  0  0  0
  8 12  2  0  0  0  0
  8  9  1  0  0  0  0
  9 10  1  0  0  0  0
 10 11  2  0  0  0  0
 11 12  1  0  0  0  0
 12 13  1  0  0  0  0
 13 25  2  0  0  0  0
 13 14  1  0  0  0  0
 14 15  2  0  0  0  0
 15 16  1  0  0  0  0
 16 17  2  0  0  0  0
 17 18  1  0  0  0  0
 18 19  1  0  0  0  0
 19 24  2  0  0  0  0
 19 20  1  0  0  0  0
 20 21  2  0  0  0  0
 21 22  1  0  0  0  0
 22 23  2  0  0  0  0
 23 24  1  0  0  0  0
 17 25  1  0  0  0  0
 11 26  1  0  0  0  0
 26 31  2  0  0  0  0
 26 27  1  0  0  0  0
 27 28  2  0  0  0  0
 28 29  1  0  0  0  0
 29 30  2  0  0  0  0
 30 31  1  0  0  0  0
M  END
$$$$
vertex_jnk3_structure21_lig
