jnk.pp.1-18.sdf
  -OEChem-04100307473D

 29 31  0     0  0  0  0  0  0999 V2000
   22.9460   12.5990   29.9170 C   0  0  0  0  0  0  0  0  0  0  0  0
   22.9260   12.6520   31.3490 O   0  0  0  0  0  0  0  0  0  0  0  0
   21.6820   12.4690   31.9140 C   0  0  0  0  0  0  0  0  0  0  0  0
   21.2470   11.0940   32.1700 C   0  0  0  0  0  0  0  0  0  0  0  0
   19.9140   10.8070   32.7360 C   0  0  0  0  0  0  0  0  0  0  0  0
   19.0340   11.9760   33.0500 C   0  0  0  0  0  0  0  0  0  0  0  0
   19.4600   13.3570   32.8000 C   0  0  0  0  0  0  0  0  0  0  0  0
   18.6000   14.3650   33.1730 O   0  0  0  0  0  0  0  0  0  0  0  0
   17.5650   14.7220   32.2630 C   0  0  0  0  0  0  0  0  0  0  0  0
   20.7900   13.6260   32.2220 C   0  0  0  0  0  0  0  0  0  0  0  0
   21.1760   14.9510   31.9200 O   0  0  0  0  0  0  0  0  0  0  0  0
   21.4360   15.3140   30.5440 C   0  0  0  0  0  0  0  0  0  0  0  0
   19.4980    9.3570   32.8720 C   0  0  0  0  0  0  0  0  0  0  0  0
   18.2040    8.8970   33.3440 C   0  0  0  0  0  0  0  0  0  0  0  0
   18.0930    7.4570   33.4190 C   0  0  0  0  0  0  0  0  0  0  0  0
   19.1070    6.5820   33.0800 N   0  0  0  0  0  0  0  0  0  0  0  0
   20.2860    7.0340   32.6430 C   0  0  0  0  0  0  0  0  0  0  0  0
   21.2830    6.1470   32.3010 N   0  0  0  0  0  0  0  0  0  0  0  0
   22.4310    6.3500   31.5100 C   0  0  0  0  0  0  0  0  0  0  0  0
   23.2410    5.1440   31.3360 C   0  0  0  0  0  0  0  0  0  0  0  0
   24.4420    5.1560   30.4940 C   0  0  0  0  0  0  0  0  0  0  0  0
   24.8380    6.3960   29.8100 C   0  0  0  0  0  0  0  0  0  0  0  0
   24.0630    7.6330   29.9590 C   0  0  0  0  0  0  0  0  0  0  0  0
   22.8820    7.5960   30.8020 C   0  0  0  0  0  0  0  0  0  0  0  0
   26.2250    6.3480   28.8020 S   0  0  0  0  0  0  0  0  0  0  0  0
   25.8360    6.1180   27.4260 O   0  0  0  0  0  0  0  0  0  0  0  0
   27.0780    5.4070   29.4830 O   0  0  0  0  0  0  0  0  0  0  0  0
   26.9860    7.9180   28.8940 N   0  0  0  0  0  0  0  0  0  0  0  0
   20.4650    8.3770   32.5460 N   0  0  0  0  0  0  0  0  0  0  0  0
  1  2  1  0  0  0  0
  2  3  1  0  0  0  0
  3 10  2  0  0  0  0
  3  4  1  0  0  0  0
  4  5  2  0  0  0  0
  5  6  1  0  0  0  0
  6  7  2  0  0  0  0
  7  8  1  0  0  0  0
  8  9  1  0  0  0  0
  7 10  1  0  0  0  0
 10 11  1  0  0  0  0
 11 12  1  0  0  0  0
  5 13  1  0  0  0  0
 13 29  2  0  0  0  0
 13 14  1  0  0  0  0
 14 15  2  0  0  0  0
 15 16  1  0  0  0  0
 16 17  2  0  0  0  0
 17 18  1  0  0  0  0
 18 19  1  0  0  0  0
 19 24  2  0  0  0  0
 19 20  1  0  0  0  0
 20 21  2  0  0  0  0
 21 22  1  0  0  0  0
 22 23  2  0  0  0  0
 23 24  1  0  0  0  0
 22 25  1  0  0  0  0
 25 26  2  0  0  0  0
 25 27  2  0  0  0  0
 25 28  1  0  0  0  0
 17 29  1  0  0  0  0
M  END
$$$$
vertex_jnk3_structure50_lig
