jnk.pp.1-23.sdf
  -OEChem-12220712583D

 35 38  0     0  0  0  0  0  0999 V2000
   17.3615   13.0431   34.2274 C   0  0  0  0  0  0  0  0  0  0  0  0
   24.0009    6.3139   30.1450 C   0  0  0  0  0  0  0  0  0  0  0  0
   23.7705    7.6836   30.2079 C   0  0  0  0  0  0  0  0  0  0  0  0
   20.9389    7.7964   32.4705 C   0  0  0  0  0  0  0  0  0  0  0  0
   18.2880   12.9853   33.1989 C   0  0  0  0  0  0  0  0  0  0  0  0
   20.7100    9.1752   32.5194 C   0  0  0  0  0  0  0  0  0  0  0  0
   17.5949   12.3285   35.3852 C   0  0  0  0  0  0  0  0  0  0  0  0
   23.1834    5.4890   30.8914 C   0  0  0  0  0  0  0  0  0  0  0  0
   22.2553   12.2396   30.9811 C   0  0  0  0  0  0  0  0  0  0  0  0
   21.4238   11.4687   31.7788 C   0  0  0  0  0  0  0  0  0  0  0  0
   21.9693    7.2696   31.7099 C   0  0  0  0  0  0  0  0  0  0  0  0
   22.7547    8.1956   30.9989 C   0  0  0  0  0  0  0  0  0  0  0  0
   21.5510   10.0154   31.8104 C   0  0  0  0  0  0  0  0  0  0  0  0
   19.4618   12.2594   33.3700 C   0  0  0  0  0  0  0  0  0  0  0  0
   20.5557   12.4267   32.4004 C   0  0  0  0  0  0  0  0  0  0  0  0
   18.7676   11.5905   35.4740 C   0  0  0  0  0  0  0  0  0  0  0  0
   19.0431   10.8334   36.7295 C   0  0  0  0  0  0  0  0  0  0  0  0
   22.1728    5.9379   31.6649 N   0  0  0  0  0  0  0  0  0  0  0  0
   22.5633    9.5243   31.0474 N   0  0  0  0  0  0  0  0  0  0  0  0
   19.7001   11.5358   34.4883 N   0  0  0  0  0  0  0  0  0  0  0  0
   20.8376   13.6761   31.9625 N   0  0  0  0  0  0  0  0  0  0  0  0
   21.8801   13.5284   31.1455 N   0  0  0  0  0  0  0  0  0  0  0  0
   16.4996   13.6921   34.1364 H   0  0  0  0  0  0  0  0  0  0  0  0
   24.8004    5.9075   29.5367 H   0  0  0  0  0  0  0  0  0  0  0  0
   24.3959    8.3664   29.6397 H   0  0  0  0  0  0  0  0  0  0  0  0
   20.2955    7.1227   33.0301 H   0  0  0  0  0  0  0  0  0  0  0  0
   18.1408   13.5931   32.3135 H   0  0  0  0  0  0  0  0  0  0  0  0
   19.8845    9.5435   33.1121 H   0  0  0  0  0  0  0  0  0  0  0  0
   16.8912   12.3684   36.2102 H   0  0  0  0  0  0  0  0  0  0  0  0
   23.3244    4.4123   30.8926 H   0  0  0  0  0  0  0  0  0  0  0  0
   23.0700   11.9688   30.3239 H   0  0  0  0  0  0  0  0  0  0  0  0
   18.3575    9.9857   36.7969 H   0  0  0  0  0  0  0  0  0  0  0  0
   20.0766   10.4786   36.7455 H   0  0  0  0  0  0  0  0  0  0  0  0
   18.8947   11.4765   37.5995 H   0  0  0  0  0  0  0  0  0  0  0  0
   22.2810   14.3577   30.7199 H   0  0  0  0  0  0  0  0  0  0  0  0
  1  5  2  0  0  0  0
  1  7  1  0  0  0  0
  2  3  2  0  0  0  0
  2  8  1  0  0  0  0
  3 12  1  0  0  0  0
  4  6  2  0  0  0  0
  4 11  1  0  0  0  0
  5 14  1  0  0  0  0
  6 13  1  0  0  0  0
  7 16  2  0  0  0  0
  8 18  2  0  0  0  0
  9 10  2  0  0  0  0
  9 22  1  0  0  0  0
 10 13  1  0  0  0  0
 10 15  1  0  0  0  0
 11 12  2  0  0  0  0
 11 18  1  0  0  0  0
 12 19  1  0  0  0  0
 13 19  2  0  0  0  0
 14 15  1  0  0  0  0
 14 20  2  0  0  0  0
 15 21  2  0  0  0  0
 16 17  1  0  0  0  0
 16 20  1  0  0  0  0
 21 22  1  0  0  0  0
  1 23  1  0  0  0  0
  2 24  1  0  0  0  0
  3 25  1  0  0  0  0
  4 26  1  0  0  0  0
  5 27  1  0  0  0  0
  6 28  1  0  0  0  0
  7 29  1  0  0  0  0
  8 30  1  0  0  0  0
  9 31  1  0  0  0  0
 17 32  1  0  0  0  0
 17 33  1  0  0  0  0
 17 34  1  0  0  0  0
 22 35  1  0  0  0  0
M  END
$$$$
