jnk.pp.1-14.sdf
  -OEChem-04100307473D

 24 27  0     0  0  0  0  0  0999 V2000
   16.4960   12.7770   37.0480 F   0  0  0  0  0  0  0  0  0  0  0  0
   17.3290   12.5270   36.0480 C   0  0  0  0  0  0  0  0  0  0  0  0
   18.3250   11.4770   36.2440 C   0  0  0  0  0  0  0  0  0  0  0  0
   19.3310   11.2110   35.2060 C   0  0  0  0  0  0  0  0  0  0  0  0
   19.3660   11.9870   33.9450 C   0  0  0  0  0  0  0  0  0  0  0  0
   18.3550   13.0410   33.7580 C   0  0  0  0  0  0  0  0  0  0  0  0
   17.3530   13.3040   34.7990 C   0  0  0  0  0  0  0  0  0  0  0  0
   20.4360   11.6830   32.9010 C   0  0  0  0  0  0  0  0  0  0  0  0
   21.1960   12.6330   32.3260 N   0  0  0  0  0  0  0  0  0  0  0  0
   22.0300   11.9550   31.4810 C   0  0  0  0  0  0  0  0  0  0  0  0
   21.8650   10.6120   31.4620 N   0  0  0  0  0  0  0  0  0  0  0  0
   20.8720   10.3570   32.3350 C   0  0  0  0  0  0  0  0  0  0  0  0
   20.3720    8.9460   32.5840 C   0  0  0  0  0  0  0  0  0  0  0  0
   18.9620    8.6980   32.9220 C   0  0  0  0  0  0  0  0  0  0  0  0
   18.5540    7.3340   33.1800 C   0  0  0  0  0  0  0  0  0  0  0  0
   19.5190    6.3500   33.0880 N   0  0  0  0  0  0  0  0  0  0  0  0
   20.8730    6.5150   32.7650 C   0  0  0  0  0  0  0  0  0  0  0  0
   21.3470    7.8610   32.4970 C   0  0  0  0  0  0  0  0  0  0  0  0
   23.0880   12.5990   30.5790 C   0  0  0  0  0  0  0  0  0  0  0  0
   24.1590   13.2660   31.4460 C   0  0  0  0  0  0  0  0  0  0  0  0
   24.9790   14.3800   30.7340 C   0  0  0  0  0  0  0  0  0  0  0  0
   24.1760   15.2640   29.7220 C   0  0  0  0  0  0  0  0  0  0  0  0
   23.3270   14.4080   28.7680 C   0  0  0  0  0  0  0  0  0  0  0  0
   22.3690   13.5070   29.5720 C   0  0  0  0  0  0  0  0  0  0  0  0
  1  2  1  0  0  0  0
  2  7  2  0  0  0  0
  2  3  1  0  0  0  0
  3  4  2  0  0  0  0
  4  5  1  0  0  0  0
  5  6  2  0  0  0  0
  6  7  1  0  0  0  0
  5  8  1  0  0  0  0
  8 12  2  0  0  0  0
  8  9  1  0  0  0  0
  9 10  2  0  0  0  0
 10 11  1  0  0  0  0
 11 12  1  0  0  0  0
 12 13  1  0  0  0  0
 13 18  2  0  0  0  0
 13 14  1  0  0  0  0
 14 15  2  0  0  0  0
 15 16  1  0  0  0  0
 16 17  2  0  0  0  0
 17 18  1  0  0  0  0
 10 19  1  0  0  0  0
 19 24  1  0  0  0  0
 19 20  1  0  0  0  0
 20 21  1  0  0  0  0
 21 22  1  0  0  0  0
 22 23  1  0  0  0  0
 23 24  1  0  0  0  0
M  END
$$$$
vertex_jnk3_structure8_lig
