jnk.pp.1-56.sdf
  -OEChem-04100307473D

 24 26  0     0  0  0  0  0  0999 V2000
   20.7020    8.7870   32.4620 O   0  0  0  0  0  0  0  0  0  0  0  0
   21.4460    9.3280   31.6420 C   0  0  0  0  0  0  0  0  0  0  0  0
   22.3230    8.6700   30.8720 N   0  0  0  0  0  0  0  0  0  0  0  0
   22.6020    7.3380   30.8720 C   0  0  0  0  0  0  0  0  0  0  0  0
   22.1090    6.3820   31.7990 C   0  0  0  0  0  0  0  0  0  0  0  0
   22.4800    5.0470   31.6650 C   0  0  0  0  0  0  0  0  0  0  0  0
   23.3310    4.7420   30.6050 C   0  0  0  0  0  0  0  0  0  0  0  0
   23.8500    5.6560   29.6550 C   0  0  0  0  0  0  0  0  0  0  0  0
   23.4620    6.9890   29.8120 C   0  0  0  0  0  0  0  0  0  0  0  0
   21.3580   10.8110   31.4890 C   0  0  0  0  0  0  0  0  0  0  0  0
   20.5700   11.5420   32.3180 C   0  0  0  0  0  0  0  0  0  0  0  0
   19.7680   10.9960   33.3810 N   0  0  0  0  0  0  0  0  0  0  0  0
   19.0210   11.5740   34.4000 C   0  0  0  0  0  0  0  0  0  0  0  0
   19.2940   11.2420   35.7300 C   0  0  0  0  0  0  0  0  0  0  0  0
   18.4460   11.6530   36.7640 C   0  0  0  0  0  0  0  0  0  0  0  0
   17.3160   12.4000   36.5270 C   0  0  0  0  0  0  0  0  0  0  0  0
   17.0000   12.7650   35.2040 C   0  0  0  0  0  0  0  0  0  0  0  0
   17.8740   12.3490   34.1300 C   0  0  0  0  0  0  0  0  0  0  0  0
   20.3610   12.9450   32.0070 N   0  0  0  0  0  0  0  0  0  0  0  0
   21.0570   13.5400   31.0950 C   0  0  0  0  0  0  0  0  0  0  0  0
   20.9060   14.7410   31.0130 O   0  0  0  0  0  0  0  0  0  0  0  0
   21.8880   12.8620   30.3150 N   0  0  0  0  0  0  0  0  0  0  0  0
   22.1200   11.5220   30.3660 C   0  0  0  0  0  0  0  0  0  0  0  0
   22.9250   10.9490   29.6080 O   0  0  0  0  0  0  0  0  0  0  0  0
  1  2  2  0  0  0  0
  2  3  1  0  0  0  0
  3  4  1  0  0  0  0
  4  9  2  0  0  0  0
  4  5  1  0  0  0  0
  5  6  2  0  0  0  0
  6  7  1  0  0  0  0
  7  8  2  0  0  0  0
  8  9  1  0  0  0  0
  2 10  1  0  0  0  0
 10 23  1  0  0  0  0
 10 11  2  0  0  0  0
 11 12  1  0  0  0  0
 12 13  1  0  0  0  0
 13 18  2  0  0  0  0
 13 14  1  0  0  0  0
 14 15  2  0  0  0  0
 15 16  1  0  0  0  0
 16 17  2  0  0  0  0
 17 18  1  0  0  0  0
 11 19  1  0  0  0  0
 19 20  1  0  0  0  0
 20 21  2  0  0  0  0
 20 22  1  0  0  0  0
 22 23  1  0  0  0  0
 23 24  2  0  0  0  0
M  END
$$$$
vertex_jnk3_structure33_lig
