jnk.pp.1-50.sdf
  -OEChem-04100307473D

 25 28  0     0  0  0  0  0  0999 V2000
   17.7390    6.8780   32.6550 O   0  0  0  0  0  0  0  0  0  0  0  0
   18.9880    7.2430   33.1450 N   0  0  0  0  0  0  0  0  0  0  0  0
   20.0960    7.1160   32.4090 C   0  0  0  0  0  0  0  0  0  0  0  0
   20.7050    5.9690   31.6430 C   0  0  0  0  0  0  0  0  0  0  0  0
   20.1290    4.8960   31.5280 O   0  0  0  0  0  0  0  0  0  0  0  0
   21.9380    6.3630   31.1340 N   0  0  0  0  0  0  0  0  0  0  0  0
   22.6770    5.5350   30.1570 C   0  0  0  0  0  0  0  0  0  0  0  0
   23.7830    4.7820   30.8230 C   0  0  0  0  0  0  0  0  0  0  0  0
   23.3970    3.8120   31.7460 C   0  0  0  0  0  0  0  0  0  0  0  0
   24.3690    3.1210   32.4160 C   0  0  0  0  0  0  0  0  0  0  0  0
   23.9580    2.2220   33.2900 F   0  0  0  0  0  0  0  0  0  0  0  0
   25.7300    3.3480   32.2020 C   0  0  0  0  0  0  0  0  0  0  0  0
   26.1160    4.3150   31.2720 C   0  0  0  0  0  0  0  0  0  0  0  0
   27.6110    4.4810   31.0460 C   0  0  0  0  0  0  0  0  0  0  0  0
   27.8490    5.6210   30.2850 O   0  0  0  0  0  0  0  0  0  0  0  0
   26.8610    5.9730   29.3460 C   0  0  0  0  0  0  0  0  0  0  0  0
   25.5010    5.9360   29.6660 O   0  0  0  0  0  0  0  0  0  0  0  0
   25.1460    5.0370   30.5790 C   0  0  0  0  0  0  0  0  0  0  0  0
   22.1120    7.7210   31.4040 C   0  0  0  0  0  0  0  0  0  0  0  0
   23.1360    8.6030   31.0390 C   0  0  0  0  0  0  0  0  0  0  0  0
   23.0670    9.9190   31.5140 C   0  0  0  0  0  0  0  0  0  0  0  0
   21.9890   10.3360   32.3300 C   0  0  0  0  0  0  0  0  0  0  0  0
   21.9230   11.5730   32.8330 F   0  0  0  0  0  0  0  0  0  0  0  0
   20.9740    9.4930   32.6750 C   0  0  0  0  0  0  0  0  0  0  0  0
   21.0650    8.2050   32.1960 C   0  0  0  0  0  0  0  0  0  0  0  0
  1  2  1  0  0  0  0
  2  3  2  0  0  0  0
  3 25  1  0  0  0  0
  3  4  1  0  0  0  0
  4  5  2  0  0  0  0
  4  6  1  0  0  0  0
  6  7  1  0  0  0  0
  7  8  1  0  0  0  0
  8 18  2  0  0  0  0
  8  9  1  0  0  0  0
  9 10  2  0  0  0  0
 10 11  1  0  0  0  0
 10 12  1  0  0  0  0
 12 13  2  0  0  0  0
 13 18  1  0  0  0  0
 13 14  1  0  0  0  0
 14 15  1  0  0  0  0
 15 16  1  0  0  0  0
 16 17  1  0  0  0  0
 17 18  1  0  0  0  0
  6 19  1  0  0  0  0
 19 25  2  0  0  0  0
 19 20  1  0  0  0  0
 20 21  2  0  0  0  0
 21 22  1  0  0  0  0
 22 23  1  0  0  0  0
 22 24  2  0  0  0  0
 24 25  1  0  0  0  0
M  END
$$$$
vertex_jnk3_structure34_lig
