jnk.pp.1-46.sdf
  -OEChem-04100307473D

 35 39  0     0  0  0  0  0  0999 V2000
   17.6240    7.6980   33.4910 O   0  0  0  0  0  0  0  0  0  0  0  0
   18.4290    6.8480   32.7330 N   0  0  0  0  0  0  0  0  0  0  0  0
   19.6740    7.2750   32.0550 C   0  0  0  0  0  0  0  0  0  0  0  0
   20.3380    6.4220   31.1810 C   0  0  0  0  0  0  0  0  0  0  0  0
   19.9790    5.3150   30.8880 O   0  0  0  0  0  0  0  0  0  0  0  0
   21.4490    7.0100   30.6400 N   0  0  0  0  0  0  0  0  0  0  0  0
   22.2490    6.3370   29.6010 C   0  0  0  0  0  0  0  0  0  0  0  0
   23.4190    5.5730   30.2020 C   0  0  0  0  0  0  0  0  0  0  0  0
   23.1840    4.4480   31.1360 C   0  0  0  0  0  0  0  0  0  0  0  0
   24.3160    3.8150   31.7880 C   0  0  0  0  0  0  0  0  0  0  0  0
   24.0240    2.9370   32.7110 F   0  0  0  0  0  0  0  0  0  0  0  0
   25.6860    4.2780   31.5060 C   0  0  0  0  0  0  0  0  0  0  0  0
   25.8830    5.3980   30.5580 C   0  0  0  0  0  0  0  0  0  0  0  0
   27.2550    5.8860   30.0860 C   0  0  0  0  0  0  0  0  0  0  0  0
   27.2080    6.5520   28.7740 O   0  0  0  0  0  0  0  0  0  0  0  0
   26.2610    7.6540   28.7270 C   0  0  0  0  0  0  0  0  0  0  0  0
   24.9330    7.1570   28.9830 O   0  0  0  0  0  0  0  0  0  0  0  0
   24.7470    6.0610   29.9050 C   0  0  0  0  0  0  0  0  0  0  0  0
   21.5990    8.3080   31.1210 C   0  0  0  0  0  0  0  0  0  0  0  0
   22.5510    9.4320   30.9380 C   0  0  0  0  0  0  0  0  0  0  0  0
   22.3920   10.7330   31.6520 C   0  0  0  0  0  0  0  0  0  0  0  0
   21.2340   10.8510   32.5570 C   0  0  0  0  0  0  0  0  0  0  0  0
   20.2810    9.7700   32.7570 C   0  0  0  0  0  0  0  0  0  0  0  0
   20.4140    8.4900   32.0700 C   0  0  0  0  0  0  0  0  0  0  0  0
   23.3210   11.9550   31.4620 C   0  0  0  0  0  0  0  0  0  0  0  0
   22.7850   13.3450   31.4770 C   0  0  0  0  0  0  0  0  0  0  0  0
   23.6030   14.5130   31.2310 C   0  0  0  0  0  0  0  0  0  0  0  0
   25.0410   14.3690   30.9450 C   0  0  0  0  0  0  0  0  0  0  0  0
   25.8620   15.5630   30.4670 C   0  0  0  0  0  0  0  0  0  0  0  0
   25.3030   16.2400   29.1990 C   0  0  0  0  0  0  0  0  0  0  0  0
   25.5730   15.4470   27.9180 C   0  0  0  0  0  0  0  0  0  0  0  0
   25.2310   16.0590   26.7300 O   0  0  0  0  0  0  0  0  0  0  0  0
   26.0550   14.3490   27.9550 O   0  0  0  0  0  0  0  0  0  0  0  0
   25.6160   13.0110   30.9280 C   0  0  0  0  0  0  0  0  0  0  0  0
   24.7770   11.8330   31.1800 C   0  0  0  0  0  0  0  0  0  0  0  0
  1  2  1  0  0  0  0
  2  3  2  0  0  0  0
  3 24  1  0  0  0  0
  3  4  1  0  0  0  0
  4  5  2  0  0  0  0
  4  6  1  0  0  0  0
  6  7  1  0  0  0  0
  7  8  1  0  0  0  0
  8 18  2  0  0  0  0
  8  9  1  0  0  0  0
  9 10  2  0  0  0  0
 10 11  1  0  0  0  0
 10 12  1  0  0  0  0
 12 13  2  0  0  0  0
 13 18  1  0  0  0  0
 13 14  1  0  0  0  0
 14 15  1  0  0  0  0
 15 16  1  0  0  0  0
 16 17  1  0  0  0  0
 17 18  1  0  0  0  0
  6 19  1  0  0  0  0
 19 24  2  0  0  0  0
 19 20  1  0  0  0  0
 20 21  2  0  0  0  0
 21 22  1  0  0  0  0
 22 23  2  0  0  0  0
 23 24  1  0  0  0  0
 21 25  1  0  0  0  0
 25 35  2  0  0  0  0
 25 26  1  0  0  0  0
 26 27  2  0  0  0  0
 27 28  1  0  0  0  0
 28 29  1  0  0  0  0
 29 30  1  0  0  0  0
 30 31  1  0  0  0  0
 31 32  2  0  0  0  0
 31 33  1  0  0  0  0
 28 34  2  0  0  0  0
 34 35  1  0  0  0  0
M  END
$$$$
vertex_jnk3_structure45_lig
