jnk.pp.1-11.sdf
  -OEChem-04100307463D

 27 30  0     0  0  0  0  0  0999 V2000
   22.2300   10.6330   30.6120 C   0  0  0  0  0  0  0  0  0  0  0  0
   21.4560   11.2950   31.7610 C   0  0  0  0  0  0  0  0  0  0  0  0
   21.5190   12.6370   31.8630 O   0  0  0  0  0  0  0  0  0  0  0  0
   20.6230   12.9020   32.8810 N   0  0  0  0  0  0  0  0  0  0  0  0
   20.0360   11.8810   33.4470 C   0  0  0  0  0  0  0  0  0  0  0  0
   20.6100   10.7330   32.7020 C   0  0  0  0  0  0  0  0  0  0  0  0
   20.2580    9.2660   32.8250 C   0  0  0  0  0  0  0  0  0  0  0  0
   18.9950    8.8490   33.2830 C   0  0  0  0  0  0  0  0  0  0  0  0
   18.7760    7.4810   33.3570 C   0  0  0  0  0  0  0  0  0  0  0  0
   19.7660    6.6660   33.0040 N   0  0  0  0  0  0  0  0  0  0  0  0
   20.9460    7.1040   32.5650 C   0  0  0  0  0  0  0  0  0  0  0  0
   21.8830    6.1210   32.2060 N   0  0  0  0  0  0  0  0  0  0  0  0
   23.0990    6.2490   31.5470 C   0  0  0  0  0  0  0  0  0  0  0  0
   23.7800    7.4680   31.4480 C   0  0  0  0  0  0  0  0  0  0  0  0
   25.0310    7.5500   30.8040 C   0  0  0  0  0  0  0  0  0  0  0  0
   25.5860    6.3860   30.2580 C   0  0  0  0  0  0  0  0  0  0  0  0
   26.8190    6.5190   29.5900 C   0  0  0  0  0  0  0  0  0  0  0  0
   27.7830    6.6910   28.9710 N   0  0  0  0  0  0  0  0  0  0  0  0
   24.8980    5.1550   30.3610 C   0  0  0  0  0  0  0  0  0  0  0  0
   23.6520    5.0820   31.0050 C   0  0  0  0  0  0  0  0  0  0  0  0
   21.1980    8.3890   32.4860 N   0  0  0  0  0  0  0  0  0  0  0  0
   19.0390   11.9500   34.5730 C   0  0  0  0  0  0  0  0  0  0  0  0
   19.2260   11.1560   35.7330 C   0  0  0  0  0  0  0  0  0  0  0  0
   18.3410   11.2160   36.7960 C   0  0  0  0  0  0  0  0  0  0  0  0
   17.2650   12.0820   36.6730 C   0  0  0  0  0  0  0  0  0  0  0  0
   17.0540   12.8790   35.5340 C   0  0  0  0  0  0  0  0  0  0  0  0
   17.9510   12.8150   34.4670 C   0  0  0  0  0  0  0  0  0  0  0  0
  1  2  1  0  0  0  0
  2  6  2  0  0  0  0
  2  3  1  0  0  0  0
  3  4  1  0  0  0  0
  4  5  2  0  0  0  0
  5  6  1  0  0  0  0
  6  7  1  0  0  0  0
  7 21  2  0  0  0  0
  7  8  1  0  0  0  0
  8  9  2  0  0  0  0
  9 10  1  0  0  0  0
 10 11  2  0  0  0  0
 11 12  1  0  0  0  0
 12 13  1  0  0  0  0
 13 20  2  0  0  0  0
 13 14  1  0  0  0  0
 14 15  2  0  0  0  0
 15 16  1  0  0  0  0
 16 17  1  0  0  0  0
 17 18  3  0  0  0  0
 16 19  2  0  0  0  0
 19 20  1  0  0  0  0
 11 21  1  0  0  0  0
  5 22  1  0  0  0  0
 22 27  2  0  0  0  0
 22 23  1  0  0  0  0
 23 24  2  0  0  0  0
 24 25  1  0  0  0  0
 25 26  2  0  0  0  0
 26 27  1  0  0  0  0
M  END
$$$$
vertex_jnk3_structure10_lig
