jnk.pp.1-49.sdf
  -OEChem-04100307463D

 26 29  0     0  0  0  0  0  0999 V2000
   20.6940   11.9470   33.3530 C   0  0  0  0  0  0  0  0  0  0  0  0
   21.0060   10.6540   32.8110 C   0  0  0  0  0  0  0  0  0  0  0  0
   20.0650    9.6030   32.8350 C   0  0  0  0  0  0  0  0  0  0  0  0
   20.4140    8.3640   32.2110 C   0  0  0  0  0  0  0  0  0  0  0  0
   19.7010    7.0060   32.1410 C   0  0  0  0  0  0  0  0  0  0  0  0
   18.5110    6.6160   32.5270 N   0  0  0  0  0  0  0  0  0  0  0  0
   17.6050    7.3610   33.2590 O   0  0  0  0  0  0  0  0  0  0  0  0
   20.6870    6.1530   31.3890 C   0  0  0  0  0  0  0  0  0  0  0  0
   20.5670    4.9550   31.1350 O   0  0  0  0  0  0  0  0  0  0  0  0
   21.7080    6.8940   31.0320 N   0  0  0  0  0  0  0  0  0  0  0  0
   22.5920    6.2310   30.0930 C   0  0  0  0  0  0  0  0  0  0  0  0
   23.5420    5.2520   30.7040 C   0  0  0  0  0  0  0  0  0  0  0  0
   23.1270    4.3280   31.6750 C   0  0  0  0  0  0  0  0  0  0  0  0
   24.1150    3.4920   32.1900 C   0  0  0  0  0  0  0  0  0  0  0  0
   23.7280    2.4620   32.8920 F   0  0  0  0  0  0  0  0  0  0  0  0
   25.4280    3.5720   31.7880 C   0  0  0  0  0  0  0  0  0  0  0  0
   25.8010    4.5010   30.8210 C   0  0  0  0  0  0  0  0  0  0  0  0
   27.2230    4.6620   30.3680 C   0  0  0  0  0  0  0  0  0  0  0  0
   27.1970    5.3280   29.1300 O   0  0  0  0  0  0  0  0  0  0  0  0
   26.5490    6.5590   29.2580 C   0  0  0  0  0  0  0  0  0  0  0  0
   25.2180    6.1700   29.2980 O   0  0  0  0  0  0  0  0  0  0  0  0
   24.8710    5.3170   30.2860 C   0  0  0  0  0  0  0  0  0  0  0  0
   21.6620    8.2150   31.5780 C   0  0  0  0  0  0  0  0  0  0  0  0
   22.5730    9.2620   31.5640 C   0  0  0  0  0  0  0  0  0  0  0  0
   23.9120    9.1310   30.9720 C   0  0  0  0  0  0  0  0  0  0  0  0
   22.2360   10.4710   32.1840 C   0  0  0  0  0  0  0  0  0  0  0  0
  1  2  1  0  0  0  0
  2 26  2  0  0  0  0
  2  3  1  0  0  0  0
  3  4  2  0  0  0  0
  4 23  1  0  0  0  0
  4  5  1  0  0  0  0
  5  6  2  0  0  0  0
  6  7  1  0  0  0  0
  5  8  1  0  0  0  0
  8  9  2  0  0  0  0
  8 10  1  0  0  0  0
 10 11  1  0  0  0  0
 11 12  1  0  0  0  0
 12 22  2  0  0  0  0
 12 13  1  0  0  0  0
 13 14  2  0  0  0  0
 14 15  1  0  0  0  0
 14 16  1  0  0  0  0
 16 17  2  0  0  0  0
 17 22  1  0  0  0  0
 17 18  1  0  0  0  0
 18 19  1  0  0  0  0
 19 20  1  0  0  0  0
 20 21  1  0  0  0  0
 21 22  1  0  0  0  0
 10 23  1  0  0  0  0
 23 24  2  0  0  0  0
 24 25  1  0  0  0  0
 24 26  1  0  0  0  0
M  END
$$$$
vertex_jnk3_structure35_lig
