jnk.pp.1-48.sdf
  -OEChem-04100307463D

 25 28  0     0  0  0  0  0  0999 V2000
   24.6950   14.9770   27.8320 O   0  0  0  0  0  0  0  0  0  0  0  0
   23.9010   14.4170   28.8070 C   0  0  0  0  0  0  0  0  0  0  0  0
   23.4820   15.1390   29.9590 C   0  0  0  0  0  0  0  0  0  0  0  0
   22.6990   14.4790   30.9330 C   0  0  0  0  0  0  0  0  0  0  0  0
   22.3550   13.1160   30.7290 C   0  0  0  0  0  0  0  0  0  0  0  0
   22.7810   12.4270   29.5710 C   0  0  0  0  0  0  0  0  0  0  0  0
   23.5580   13.0820   28.6090 C   0  0  0  0  0  0  0  0  0  0  0  0
   21.5760   12.3440   31.7490 C   0  0  0  0  0  0  0  0  0  0  0  0
   21.6100   11.0220   31.8470 N   0  0  0  0  0  0  0  0  0  0  0  0
   20.6070   10.6060   32.8250 C   0  0  0  0  0  0  0  0  0  0  0  0
   20.1290   11.7430   33.3360 C   0  0  0  0  0  0  0  0  0  0  0  0
   20.7780   12.8700   32.6530 N   0  0  0  0  0  0  0  0  0  0  0  0
   19.1540   11.9590   34.4020 C   0  0  0  0  0  0  0  0  0  0  0  0
   19.1380   11.1250   35.5350 C   0  0  0  0  0  0  0  0  0  0  0  0
   18.1960   11.3570   36.5430 C   0  0  0  0  0  0  0  0  0  0  0  0
   17.2990   12.4170   36.3950 C   0  0  0  0  0  0  0  0  0  0  0  0
   16.3690   12.5920   37.2910 F   0  0  0  0  0  0  0  0  0  0  0  0
   17.3040   13.2550   35.2780 C   0  0  0  0  0  0  0  0  0  0  0  0
   18.2420   13.0220   34.2710 C   0  0  0  0  0  0  0  0  0  0  0  0
   20.2670    9.1760   33.0350 C   0  0  0  0  0  0  0  0  0  0  0  0
   18.9450    8.7530   33.2860 C   0  0  0  0  0  0  0  0  0  0  0  0
   18.6980    7.3650   33.3970 C   0  0  0  0  0  0  0  0  0  0  0  0
   19.7100    6.5000   33.2680 N   0  0  0  0  0  0  0  0  0  0  0  0
   20.9830    6.8480   33.0340 C   0  0  0  0  0  0  0  0  0  0  0  0
   21.2970    8.2130   32.9120 C   0  0  0  0  0  0  0  0  0  0  0  0
  1  2  1  0  0  0  0
  2  7  2  0  0  0  0
  2  3  1  0  0  0  0
  3  4  2  0  0  0  0
  4  5  1  0  0  0  0
  5  6  2  0  0  0  0
  6  7  1  0  0  0  0
  5  8  1  0  0  0  0
  8 12  1  0  0  0  0
  8  9  2  0  0  0  0
  9 10  1  0  0  0  0
 10 11  2  0  0  0  0
 11 12  1  0  0  0  0
 11 13  1  0  0  0  0
 13 19  2  0  0  0  0
 13 14  1  0  0  0  0
 14 15  2  0  0  0  0
 15 16  1  0  0  0  0
 16 17  1  0  0  0  0
 16 18  2  0  0  0  0
 18 19  1  0  0  0  0
 10 20  1  0  0  0  0
 20 25  2  0  0  0  0
 20 21  1  0  0  0  0
 21 22  2  0  0  0  0
 22 23  1  0  0  0  0
 23 24  2  0  0  0  0
 24 25  1  0  0  0  0
M  END
$$$$
vertex_jnk3_structure28_lig
