jnk.pp.1-7.sdf
  -OEChem-04100307473D

 28 31  0     0  0  0  0  0  0999 V2000
   22.1180   10.1390   30.4120 C   0  0  0  0  0  0  0  0  0  0  0  0
   21.4540   10.9400   31.4600 N   0  0  0  0  0  0  0  0  0  0  0  0
   21.4920   12.2890   31.5610 C   0  0  0  0  0  0  0  0  0  0  0  0
   20.7250   12.6940   32.5630 N   0  0  0  0  0  0  0  0  0  0  0  0
   20.1500   11.4980   33.2090 C   0  0  0  0  0  0  0  0  0  0  0  0
   20.5920   10.4080   32.5480 C   0  0  0  0  0  0  0  0  0  0  0  0
   20.2530    8.9920   32.7870 C   0  0  0  0  0  0  0  0  0  0  0  0
   18.9250    8.6720   33.0580 C   0  0  0  0  0  0  0  0  0  0  0  0
   18.6180    7.3460   33.2830 C   0  0  0  0  0  0  0  0  0  0  0  0
   19.6270    6.4930   33.2270 N   0  0  0  0  0  0  0  0  0  0  0  0
   20.9100    6.6950   32.9770 C   0  0  0  0  0  0  0  0  0  0  0  0
   21.2700    8.0090   32.7480 C   0  0  0  0  0  0  0  0  0  0  0  0
   19.1980   11.6740   34.3080 C   0  0  0  0  0  0  0  0  0  0  0  0
   19.2120   10.9410   35.5050 C   0  0  0  0  0  0  0  0  0  0  0  0
   18.1900   11.2090   36.4590 C   0  0  0  0  0  0  0  0  0  0  0  0
   17.2040   12.1730   36.1980 C   0  0  0  0  0  0  0  0  0  0  0  0
   16.1590   12.3280   36.9480 F   0  0  0  0  0  0  0  0  0  0  0  0
   17.2070   12.8960   35.0130 C   0  0  0  0  0  0  0  0  0  0  0  0
   18.2070   12.6360   34.0730 C   0  0  0  0  0  0  0  0  0  0  0  0
   22.2590   13.2230   30.6890 C   0  0  0  0  0  0  0  0  0  0  0  0
   23.6420   13.3500   30.8550 C   0  0  0  0  0  0  0  0  0  0  0  0
   24.3470   14.2140   30.0190 C   0  0  0  0  0  0  0  0  0  0  0  0
   23.6370   14.9320   29.0330 C   0  0  0  0  0  0  0  0  0  0  0  0
   22.2540   14.7880   28.8850 C   0  0  0  0  0  0  0  0  0  0  0  0
   21.5540   13.9240   29.7230 C   0  0  0  0  0  0  0  0  0  0  0  0
   24.3430   15.8690   28.1120 C   0  0  0  0  0  0  0  0  0  0  0  0
   23.8690   16.3660   27.1260 O   0  0  0  0  0  0  0  0  0  0  0  0
   25.6060   16.1000   28.5240 O   0  0  0  0  0  0  0  0  0  0  0  0
  1  2  1  0  0  0  0
  2  6  1  0  0  0  0
  2  3  1  0  0  0  0
  3  4  2  0  0  0  0
  4  5  1  0  0  0  0
  5  6  2  0  0  0  0
  6  7  1  0  0  0  0
  7 12  2  0  0  0  0
  7  8  1  0  0  0  0
  8  9  2  0  0  0  0
  9 10  1  0  0  0  0
 10 11  2  0  0  0  0
 11 12  1  0  0  0  0
  5 13  1  0  0  0  0
 13 19  2  0  0  0  0
 13 14  1  0  0  0  0
 14 15  2  0  0  0  0
 15 16  1  0  0  0  0
 16 17  1  0  0  0  0
 16 18  2  0  0  0  0
 18 19  1  0  0  0  0
  3 20  1  0  0  0  0
 20 25  2  0  0  0  0
 20 21  1  0  0  0  0
 21 22  2  0  0  0  0
 22 23  1  0  0  0  0
 23 24  2  0  0  0  0
 24 25  1  0  0  0  0
 23 26  1  0  0  0  0
 26 27  2  0  0  0  0
 26 28  1  0  0  0  0
M  END
$$$$
vertex_jnk3_structure29_lig
