jnk.pp.1-4.sdf
  -OEChem-12220712583D

 41 44  0     0  0  0  0  0  0999 V2000
   21.9310    6.3387   30.6734 C   0  0  0  0  0  0  0  0  0  0  0  0
   23.1339    6.4845   29.9907 C   0  0  0  0  0  0  0  0  0  0  0  0
   21.4497    7.3829   31.4571 C   0  0  0  0  0  0  0  0  0  0  0  0
   19.7285   11.7220   34.0520 C   0  0  0  0  0  0  0  0  0  0  0  0
   18.6119   13.5814   33.0497 C   0  0  0  0  0  0  0  0  0  0  0  0
   23.8462    7.6803   30.0737 C   0  0  0  0  0  0  0  0  0  0  0  0
   22.1704    8.5758   31.5491 C   0  0  0  0  0  0  0  0  0  0  0  0
   18.8136   11.7360   35.1054 C   0  0  0  0  0  0  0  0  0  0  0  0
   17.6775   13.5896   34.0965 C   0  0  0  0  0  0  0  0  0  0  0  0
   24.0020   13.4007   29.1029 C   0  0  0  0  0  0  0  0  0  0  0  0
   19.6953   12.6916   33.0415 C   0  0  0  0  0  0  0  0  0  0  0  0
   22.5583   12.0829   30.9334 C   0  0  0  0  0  0  0  0  0  0  0  0
   23.3683    8.7421   30.8486 C   0  0  0  0  0  0  0  0  0  0  0  0
   17.8018   12.6943   35.1545 C   0  0  0  0  0  0  0  0  0  0  0  0
   22.2618   13.3513   30.4800 C   0  0  0  0  0  0  0  0  0  0  0  0
   23.7069   11.5034   30.3933 C   0  0  0  0  0  0  0  0  0  0  0  0
   20.8074   12.7165   32.0617 C   0  0  0  0  0  0  0  0  0  0  0  0
   20.7248   15.1147   31.2490 C   0  0  0  0  0  0  0  0  0  0  0  0
   15.1761   13.0923   35.9349 C   0  0  0  0  0  0  0  0  0  0  0  0
   22.9321   14.0712   29.5640 N   0  0  0  0  0  0  0  0  0  0  0  0
   24.4259   12.1778   29.4598 N   0  0  0  0  0  0  0  0  0  0  0  0
   21.6545   11.7084   31.9024 N   0  0  0  0  0  0  0  0  0  0  0  0
   21.1965   13.7591   31.2355 N   0  0  0  0  0  0  0  0  0  0  0  0
   24.4581   10.1129   31.1421 S   0  0  0  0  0  0  0  0  0  0  0  0
   16.8086   12.7842   36.6277 S   0  0  0  0  0  0  0  0  0  0  0  0
   21.3820    5.4046   30.6096 H   0  0  0  0  0  0  0  0  0  0  0  0
   23.5377    5.6602   29.4133 H   0  0  0  0  0  0  0  0  0  0  0  0
   20.5231    7.2680   32.0130 H   0  0  0  0  0  0  0  0  0  0  0  0
   20.5072   10.9615   34.0571 H   0  0  0  0  0  0  0  0  0  0  0  0
   18.4715   14.3203   32.2704 H   0  0  0  0  0  0  0  0  0  0  0  0
   24.8038    7.7593   29.5631 H   0  0  0  0  0  0  0  0  0  0  0  0
   21.8050    9.3487   32.2171 H   0  0  0  0  0  0  0  0  0  0  0  0
   18.9336   11.0158   35.9120 H   0  0  0  0  0  0  0  0  0  0  0  0
   16.9002   14.3487   34.0958 H   0  0  0  0  0  0  0  0  0  0  0  0
   24.6106   13.9146   28.3665 H   0  0  0  0  0  0  0  0  0  0  0  0
   20.6251   15.4052   32.2879 H   0  0  0  0  0  0  0  0  0  0  0  0
   21.4435   15.7811   30.7669 H   0  0  0  0  0  0  0  0  0  0  0  0
   19.7687   15.1625   30.7310 H   0  0  0  0  0  0  0  0  0  0  0  0
   15.0265   14.1651   35.8280 H   0  0  0  0  0  0  0  0  0  0  0  0
   14.4264   12.6978   36.6201 H   0  0  0  0  0  0  0  0  0  0  0  0
   15.0406   12.5991   34.9729 H   0  0  0  0  0  0  0  0  0  0  0  0
  1  2  2  0  0  0  0
  1  3  1  0  0  0  0
  2  6  1  0  0  0  0
  3  7  2  0  0  0  0
  4  8  2  0  0  0  0
  4 11  1  0  0  0  0
  5  9  1  0  0  0  0
  5 11  2  0  0  0  0
  6 13  2  0  0  0  0
  7 13  1  0  0  0  0
  8 14  1  0  0  0  0
  9 14  2  0  0  0  0
 10 20  2  0  0  0  0
 10 21  1  0  0  0  0
 11 17  1  0  0  0  0
 12 15  2  0  0  0  0
 12 16  1  0  0  0  0
 12 22  1  0  0  0  0
 13 24  1  0  0  0  0
 14 25  1  0  0  0  0
 15 20  1  0  0  0  0
 15 23  1  0  0  0  0
 16 21  2  0  0  0  0
 16 24  1  0  0  0  0
 17 22  2  0  0  0  0
 17 23  1  0  0  0  0
 18 23  1  0  0  0  0
 19 25  1  0  0  0  0
  1 26  1  0  0  0  0
  2 27  1  0  0  0  0
  3 28  1  0  0  0  0
  4 29  1  0  0  0  0
  5 30  1  0  0  0  0
  6 31  1  0  0  0  0
  7 32  1  0  0  0  0
  8 33  1  0  0  0  0
  9 34  1  0  0  0  0
 10 35  1  0  0  0  0
 18 36  1  0  0  0  0
 18 37  1  0  0  0  0
 18 38  1  0  0  0  0
 19 39  1  0  0  0  0
 19 40  1  0  0  0  0
 19 41  1  0  0  0  0
M  END
$$$$
