jnk.pp.1-58.sdf
  -OEChem-04100307473D

 33 36  0     0  0  0  0  0  0999 V2000
   25.1190   11.7170   27.0410 Cl  0  0  0  0  0  0  0  0  0  0  0  0
   26.0110   10.3110   26.4450 C   0  0  0  0  0  0  0  0  0  0  0  0
   26.6280   10.3290   25.1500 C   0  0  0  0  0  0  0  0  0  0  0  0
   27.2360    9.0860   24.6600 C   0  0  0  0  0  0  0  0  0  0  0  0
   27.2280    7.8520   25.4980 C   0  0  0  0  0  0  0  0  0  0  0  0
   26.5930    7.8660   26.8410 C   0  0  0  0  0  0  0  0  0  0  0  0
   25.9650    9.1010   27.3120 C   0  0  0  0  0  0  0  0  0  0  0  0
   25.2380    9.1750   28.5290 N   0  0  0  0  0  0  0  0  0  0  0  0
   24.9120    8.0460   29.0150 N   0  0  0  0  0  0  0  0  0  0  0  0
   23.6310    7.6630   29.2360 C   0  0  0  0  0  0  0  0  0  0  0  0
   22.6830    8.4430   29.0000 O   0  0  0  0  0  0  0  0  0  0  0  0
   23.5320    6.2180   29.7750 C   0  0  0  0  0  0  0  0  0  0  0  0
   24.5430    5.1900   29.4460 C   0  0  0  0  0  0  0  0  0  0  0  0
   24.4230    3.8000   29.9500 C   0  0  0  0  0  0  0  0  0  0  0  0
   23.2710    3.4510   30.7850 C   0  0  0  0  0  0  0  0  0  0  0  0
   22.2510    4.4520   31.1270 C   0  0  0  0  0  0  0  0  0  0  0  0
   22.3950    5.8470   30.6180 C   0  0  0  0  0  0  0  0  0  0  0  0
   21.5050    6.9090   30.9020 N   0  0  0  0  0  0  0  0  0  0  0  0
   20.3910    6.8020   31.6980 C   0  0  0  0  0  0  0  0  0  0  0  0
   19.8090    5.7250   31.9530 O   0  0  0  0  0  0  0  0  0  0  0  0
   19.8360    8.0820   32.2680 C   0  0  0  0  0  0  0  0  0  0  0  0
   18.5560    7.9920   32.9800 C   0  0  0  0  0  0  0  0  0  0  0  0
   17.8530    9.1470   33.5780 C   0  0  0  0  0  0  0  0  0  0  0  0
   18.5010   10.4250   33.4370 C   0  0  0  0  0  0  0  0  0  0  0  0
   19.7380   10.4460   32.7330 N   0  0  0  0  0  0  0  0  0  0  0  0
   20.4370    9.3710   32.1530 C   0  0  0  0  0  0  0  0  0  0  0  0
   21.7430    9.5770   31.4930 O   0  0  0  0  0  0  0  0  0  0  0  0
   22.1680   10.7720   30.8550 C   0  0  0  0  0  0  0  0  0  0  0  0
   23.4010   11.3980   31.3260 C   0  0  0  0  0  0  0  0  0  0  0  0
   23.9420   12.6300   30.6880 C   0  0  0  0  0  0  0  0  0  0  0  0
   23.2310   13.2480   29.5620 C   0  0  0  0  0  0  0  0  0  0  0  0
   21.9920   12.6340   29.0710 C   0  0  0  0  0  0  0  0  0  0  0  0
   21.4550   11.3900   29.7160 C   0  0  0  0  0  0  0  0  0  0  0  0
  1  2  1  0  0  0  0
  2  7  2  0  0  0  0
  2  3  1  0  0  0  0
  3  4  2  0  0  0  0
  4  5  1  0  0  0  0
  5  6  2  0  0  0  0
  6  7  1  0  0  0  0
  7  8  1  0  0  0  0
  8  9  1  0  0  0  0
  9 10  1  0  0  0  0
 10 11  2  0  0  0  0
 10 12  1  0  0  0  0
 12 17  2  0  0  0  0
 12 13  1  0  0  0  0
 13 14  2  0  0  0  0
 14 15  1  0  0  0  0
 15 16  2  0  0  0  0
 16 17  1  0  0  0  0
 17 18  1  0  0  0  0
 18 19  1  0  0  0  0
 19 20  2  0  0  0  0
 19 21  1  0  0  0  0
 21 26  2  0  0  0  0
 21 22  1  0  0  0  0
 22 23  2  0  0  0  0
 23 24  1  0  0  0  0
 24 25  2  0  0  0  0
 25 26  1  0  0  0  0
 26 27  1  0  0  0  0
 27 28  1  0  0  0  0
 28 33  2  0  0  0  0
 28 29  1  0  0  0  0
 29 30  2  0  0  0  0
 30 31  1  0  0  0  0
 31 32  2  0  0  0  0
 32 33  1  0  0  0  0
M  END
$$$$
vertex_jnk3_structure36_lig
