jnk.pp.1-9.sdf
  -OEChem-04100307473D

 24 27  0     0  0  0  0  0  0999 V2000
   25.3960    5.2140   29.8330 C   0  0  0  0  0  0  0  0  0  0  0  0
   24.4390    4.0350   30.0190 C   0  0  0  0  0  0  0  0  0  0  0  0
   23.3990    4.3200   31.0940 C   0  0  0  0  0  0  0  0  0  0  0  0
   22.6560    5.6520   30.9220 C   0  0  0  0  0  0  0  0  0  0  0  0
   23.6100    6.8120   30.6010 C   0  0  0  0  0  0  0  0  0  0  0  0
   24.6420    6.5000   29.5220 C   0  0  0  0  0  0  0  0  0  0  0  0
   21.9430    5.8580   32.1850 N   0  0  0  0  0  0  0  0  0  0  0  0
   20.8960    6.7480   32.4110 C   0  0  0  0  0  0  0  0  0  0  0  0
   19.6870    6.2860   32.8560 N   0  0  0  0  0  0  0  0  0  0  0  0
   18.6300    7.1310   33.1450 C   0  0  0  0  0  0  0  0  0  0  0  0
   18.7050    8.5640   33.0070 C   0  0  0  0  0  0  0  0  0  0  0  0
   19.9990    9.0430   32.5310 C   0  0  0  0  0  0  0  0  0  0  0  0
   21.0510    8.0980   32.2480 N   0  0  0  0  0  0  0  0  0  0  0  0
   20.2980   10.5070   32.3480 C   0  0  0  0  0  0  0  0  0  0  0  0
   19.5260   11.6460   32.6920 C   0  0  0  0  0  0  0  0  0  0  0  0
   20.1850   12.7760   32.2930 N   0  0  0  0  0  0  0  0  0  0  0  0
   21.3720   12.4250   31.6950 N   0  0  0  0  0  0  0  0  0  0  0  0
   21.4480   11.0390   31.7290 C   0  0  0  0  0  0  0  0  0  0  0  0
   22.2570   13.3240   31.1430 C   0  0  0  0  0  0  0  0  0  0  0  0
   22.9970   14.2770   31.9990 C   0  0  0  0  0  0  0  0  0  0  0  0
   23.9150   15.2660   31.4090 C   0  0  0  0  0  0  0  0  0  0  0  0
   24.1040   15.3160   29.9510 C   0  0  0  0  0  0  0  0  0  0  0  0
   23.3820   14.3770   29.0830 C   0  0  0  0  0  0  0  0  0  0  0  0
   22.4670   13.3910   29.6720 C   0  0  0  0  0  0  0  0  0  0  0  0
  1  6  1  0  0  0  0
  1  2  1  0  0  0  0
  2  3  1  0  0  0  0
  3  4  1  0  0  0  0
  4  5  1  0  0  0  0
  5  6  1  0  0  0  0
  4  7  1  0  0  0  0
  7  8  1  0  0  0  0
  8 13  2  0  0  0  0
  8  9  1  0  0  0  0
  9 10  2  0  0  0  0
 10 11  1  0  0  0  0
 11 12  2  0  0  0  0
 12 13  1  0  0  0  0
 12 14  1  0  0  0  0
 14 18  2  0  0  0  0
 14 15  1  0  0  0  0
 15 16  2  0  0  0  0
 16 17  1  0  0  0  0
 17 18  1  0  0  0  0
 17 19  1  0  0  0  0
 19 24  2  0  0  0  0
 19 20  1  0  0  0  0
 20 21  2  0  0  0  0
 21 22  1  0  0  0  0
 22 23  2  0  0  0  0
 23 24  1  0  0  0  0
M  END
$$$$
vertex_jnk3_structure49_lig
