jnk.pp.1-31.sdf
  -OEChem-04100307473D

 28 30  0     0  0  0  0  0  0999 V2000
   22.5740    5.2570   32.7440 N   0  0  0  0  0  0  0  0  0  0  0  0
   21.6090    6.1470   32.4250 C   0  0  0  0  0  0  0  0  0  0  0  0
   20.4060    5.8700   32.5140 O   0  0  0  0  0  0  0  0  0  0  0  0
   22.0490    7.4070   31.7040 C   0  0  0  0  0  0  0  0  0  0  0  0
   21.4900    8.7350   32.1890 C   0  0  0  0  0  0  0  0  0  0  0  0
   22.2110    9.9120   31.9680 C   0  0  0  0  0  0  0  0  0  0  0  0
   21.6110   11.1260   32.4030 C   0  0  0  0  0  0  0  0  0  0  0  0
   20.3280   11.1520   33.0410 C   0  0  0  0  0  0  0  0  0  0  0  0
   19.6720    9.8960   33.2150 C   0  0  0  0  0  0  0  0  0  0  0  0
   20.2670    8.7500   32.7890 N   0  0  0  0  0  0  0  0  0  0  0  0
   19.7810   12.5110   33.5230 C   0  0  0  0  0  0  0  0  0  0  0  0
   20.3460   13.5740   33.2630 O   0  0  0  0  0  0  0  0  0  0  0  0
   18.5570   12.5600   34.3770 C   0  0  0  0  0  0  0  0  0  0  0  0
   17.4180   13.3240   33.9710 C   0  0  0  0  0  0  0  0  0  0  0  0
   16.2820   13.3330   34.8290 C   0  0  0  0  0  0  0  0  0  0  0  0
   16.2920   12.5930   36.0220 C   0  0  0  0  0  0  0  0  0  0  0  0
   15.1930   12.5440   36.7230 F   0  0  0  0  0  0  0  0  0  0  0  0
   17.4260   11.8550   36.3940 C   0  0  0  0  0  0  0  0  0  0  0  0
   18.5770   11.8370   35.5720 C   0  0  0  0  0  0  0  0  0  0  0  0
   19.7570   11.3670   35.9670 F   0  0  0  0  0  0  0  0  0  0  0  0
   23.3050    7.1910   30.8170 C   0  0  0  0  0  0  0  0  0  0  0  0
   24.6320    7.3640   31.3010 C   0  0  0  0  0  0  0  0  0  0  0  0
   24.9830    8.1500   32.7050 Cl  0  0  0  0  0  0  0  0  0  0  0  0
   25.7340    6.9250   30.5460 C   0  0  0  0  0  0  0  0  0  0  0  0
   25.5400    6.3060   29.2960 C   0  0  0  0  0  0  0  0  0  0  0  0
   24.2320    6.1480   28.8180 C   0  0  0  0  0  0  0  0  0  0  0  0
   23.1260    6.5840   29.5440 C   0  0  0  0  0  0  0  0  0  0  0  0
   21.6610    6.5780   28.7430 Cl  0  0  0  0  0  0  0  0  0  0  0  0
  1  2  1  0  0  0  0
  2  3  2  0  0  0  0
  2  4  1  0  0  0  0
  4  5  1  0  0  0  0
  5 10  2  0  0  0  0
  5  6  1  0  0  0  0
  6  7  2  0  0  0  0
  7  8  1  0  0  0  0
  8  9  2  0  0  0  0
  9 10  1  0  0  0  0
  8 11  1  0  0  0  0
 11 12  2  0  0  0  0
 11 13  1  0  0  0  0
 13 19  2  0  0  0  0
 13 14  1  0  0  0  0
 14 15  2  0  0  0  0
 15 16  1  0  0  0  0
 16 17  1  0  0  0  0
 16 18  2  0  0  0  0
 18 19  1  0  0  0  0
 19 20  1  0  0  0  0
  4 21  1  0  0  0  0
 21 27  2  0  0  0  0
 21 22  1  0  0  0  0
 22 23  1  0  0  0  0
 22 24  2  0  0  0  0
 24 25  1  0  0  0  0
 25 26  2  0  0  0  0
 26 27  1  0  0  0  0
 27 28  1  0  0  0  0
M  END
$$$$
vertex_jnk3_structure30_lig
