jnk.pp.1-59.sdf
  -OEChem-04100307463D

 26 29  0     0  0  0  0  0  0999 V2000
   23.6420   10.4980   30.8270 C   0  0  0  0  0  0  0  0  0  0  0  0
   22.1840   10.5550   30.4620 C   0  0  0  0  0  0  0  0  0  0  0  0
   21.4410   11.2490   31.6260 C   0  0  0  0  0  0  0  0  0  0  0  0
   21.3980   12.6180   31.6300 O   0  0  0  0  0  0  0  0  0  0  0  0
   20.5480   12.9300   32.7000 N   0  0  0  0  0  0  0  0  0  0  0  0
   20.0880   11.9010   33.3260 C   0  0  0  0  0  0  0  0  0  0  0  0
   20.6470   10.7410   32.6140 C   0  0  0  0  0  0  0  0  0  0  0  0
   20.3200    9.3370   32.7450 C   0  0  0  0  0  0  0  0  0  0  0  0
   19.0600    9.0040   33.1040 C   0  0  0  0  0  0  0  0  0  0  0  0
   18.7050    7.6760   33.2210 C   0  0  0  0  0  0  0  0  0  0  0  0
   19.6330    6.7960   32.9710 N   0  0  0  0  0  0  0  0  0  0  0  0
   20.8720    7.0140   32.6160 C   0  0  0  0  0  0  0  0  0  0  0  0
   21.6570    5.8910   32.4450 N   0  0  0  0  0  0  0  0  0  0  0  0
   22.7900    5.7820   31.6930 C   0  0  0  0  0  0  0  0  0  0  0  0
   23.6380    4.7200   31.9990 C   0  0  0  0  0  0  0  0  0  0  0  0
   24.8780    4.5470   31.3750 C   0  0  0  0  0  0  0  0  0  0  0  0
   25.2400    5.4830   30.4180 C   0  0  0  0  0  0  0  0  0  0  0  0
   24.4220    6.5590   30.0640 C   0  0  0  0  0  0  0  0  0  0  0  0
   23.1790    6.6960   30.7210 C   0  0  0  0  0  0  0  0  0  0  0  0
   21.2570    8.3340   32.4880 C   0  0  0  0  0  0  0  0  0  0  0  0
   19.1930   11.9930   34.4690 C   0  0  0  0  0  0  0  0  0  0  0  0
   19.3840   11.1770   35.5800 C   0  0  0  0  0  0  0  0  0  0  0  0
   18.4720   11.2690   36.6480 C   0  0  0  0  0  0  0  0  0  0  0  0
   17.4100   12.1510   36.5680 C   0  0  0  0  0  0  0  0  0  0  0  0
   17.2150   12.9740   35.4680 C   0  0  0  0  0  0  0  0  0  0  0  0
   18.1230   12.8910   34.4130 C   0  0  0  0  0  0  0  0  0  0  0  0
  1  2  1  0  0  0  0
  2  3  1  0  0  0  0
  3  7  2  0  0  0  0
  3  4  1  0  0  0  0
  4  5  1  0  0  0  0
  5  6  2  0  0  0  0
  6  7  1  0  0  0  0
  7  8  1  0  0  0  0
  8 20  2  0  0  0  0
  8  9  1  0  0  0  0
  9 10  2  0  0  0  0
 10 11  1  0  0  0  0
 11 12  2  0  0  0  0
 12 13  1  0  0  0  0
 13 14  1  0  0  0  0
 14 19  2  0  0  0  0
 14 15  1  0  0  0  0
 15 16  2  0  0  0  0
 16 17  1  0  0  0  0
 17 18  2  0  0  0  0
 18 19  1  0  0  0  0
 12 20  1  0  0  0  0
  6 21  1  0  0  0  0
 21 26  2  0  0  0  0
 21 22  1  0  0  0  0
 22 23  2  0  0  0  0
 23 24  1  0  0  0  0
 24 25  2  0  0  0  0
 25 26  1  0  0  0  0
M  END
$$$$
vertex_jnk3_structure13_lig
