jnk.pp.1-28.sdf
  -OEChem-04100307463D

 26 29  0     0  0  0  0  0  0999 V2000
   24.2080   10.9390   31.2190 C   0  0  0  0  0  0  0  0  0  0  0  0
   23.1330   10.0380   31.5190 C   0  0  0  0  0  0  0  0  0  0  0  0
   23.1210    8.6990   31.0280 C   0  0  0  0  0  0  0  0  0  0  0  0
   21.9580    7.9480   31.3060 C   0  0  0  0  0  0  0  0  0  0  0  0
   21.5780    6.6400   30.8950 N   0  0  0  0  0  0  0  0  0  0  0  0
   22.2930    5.7820   29.9490 C   0  0  0  0  0  0  0  0  0  0  0  0
   23.3930    4.9900   30.5600 C   0  0  0  0  0  0  0  0  0  0  0  0
   23.0480    4.1090   31.6090 C   0  0  0  0  0  0  0  0  0  0  0  0
   24.1150    3.4560   32.1990 C   0  0  0  0  0  0  0  0  0  0  0  0
   23.7320    2.5000   33.0120 F   0  0  0  0  0  0  0  0  0  0  0  0
   25.4640    3.6430   31.8100 C   0  0  0  0  0  0  0  0  0  0  0  0
   25.7800    4.5260   30.7540 C   0  0  0  0  0  0  0  0  0  0  0  0
   27.1900    4.7320   30.2140 C   0  0  0  0  0  0  0  0  0  0  0  0
   27.1120    5.3620   28.9140 O   0  0  0  0  0  0  0  0  0  0  0  0
   26.3350    6.5590   28.9910 C   0  0  0  0  0  0  0  0  0  0  0  0
   24.9820    6.1370   29.1550 O   0  0  0  0  0  0  0  0  0  0  0  0
   24.7270    5.2020   30.1350 C   0  0  0  0  0  0  0  0  0  0  0  0
   20.4270    6.2980   31.4330 C   0  0  0  0  0  0  0  0  0  0  0  0
   19.8470    5.2290   31.3440 O   0  0  0  0  0  0  0  0  0  0  0  0
   19.8900    7.4510   32.1650 C   0  0  0  0  0  0  0  0  0  0  0  0
   18.7470    7.5380   32.7560 N   0  0  0  0  0  0  0  0  0  0  0  0
   17.8750    6.4660   32.8460 O   0  0  0  0  0  0  0  0  0  0  0  0
   20.9070    8.5170   32.0420 C   0  0  0  0  0  0  0  0  0  0  0  0
   20.9150    9.8450   32.5360 C   0  0  0  0  0  0  0  0  0  0  0  0
   19.8080   10.4930   33.2940 C   0  0  0  0  0  0  0  0  0  0  0  0
   22.0610   10.5740   32.2450 C   0  0  0  0  0  0  0  0  0  0  0  0
  1  2  1  0  0  0  0
  2 26  2  0  0  0  0
  2  3  1  0  0  0  0
  3  4  2  0  0  0  0
  4 23  1  0  0  0  0
  4  5  1  0  0  0  0
  5  6  1  0  0  0  0
  6  7  1  0  0  0  0
  7 17  2  0  0  0  0
  7  8  1  0  0  0  0
  8  9  2  0  0  0  0
  9 10  1  0  0  0  0
  9 11  1  0  0  0  0
 11 12  2  0  0  0  0
 12 17  1  0  0  0  0
 12 13  1  0  0  0  0
 13 14  1  0  0  0  0
 14 15  1  0  0  0  0
 15 16  1  0  0  0  0
 16 17  1  0  0  0  0
  5 18  1  0  0  0  0
 18 19  2  0  0  0  0
 18 20  1  0  0  0  0
 20 21  2  0  0  0  0
 21 22  1  0  0  0  0
 20 23  1  0  0  0  0
 23 24  2  0  0  0  0
 24 25  1  0  0  0  0
 24 26  1  0  0  0  0
M  END
$$$$
vertex_jnk3_structure38_lig
