jnk.pp.1-54.sdf
  -OEChem-04100307473D

 34 38  0     0  0  0  0  0  0999 V2000
   22.0280   10.6280   30.3030 C   0  0  0  0  0  0  0  0  0  0  0  0
   21.3450   11.2760   31.5040 C   0  0  0  0  0  0  0  0  0  0  0  0
   21.4470   12.6370   31.5940 O   0  0  0  0  0  0  0  0  0  0  0  0
   20.5120   12.9020   32.5430 N   0  0  0  0  0  0  0  0  0  0  0  0
   19.9650   11.9000   33.1650 C   0  0  0  0  0  0  0  0  0  0  0  0
   20.5190   10.7350   32.4540 C   0  0  0  0  0  0  0  0  0  0  0  0
   20.1640    9.2940   32.6480 C   0  0  0  0  0  0  0  0  0  0  0  0
   18.7880    8.9510   32.9590 C   0  0  0  0  0  0  0  0  0  0  0  0
   18.5530    7.5320   33.0620 C   0  0  0  0  0  0  0  0  0  0  0  0
   19.5540    6.6190   32.8710 N   0  0  0  0  0  0  0  0  0  0  0  0
   20.8400    7.0130   32.5800 C   0  0  0  0  0  0  0  0  0  0  0  0
   21.8080    6.0690   32.3460 N   0  0  0  0  0  0  0  0  0  0  0  0
   22.7190    6.2040   31.3780 C   0  0  0  0  0  0  0  0  0  0  0  0
   22.7840    7.1310   30.5600 O   0  0  0  0  0  0  0  0  0  0  0  0
   23.7350    5.1680   31.2640 C   0  0  0  0  0  0  0  0  0  0  0  0
   23.7860    4.0290   31.9610 C   0  0  0  0  0  0  0  0  0  0  0  0
   25.0090    3.2770   31.7970 C   0  0  0  0  0  0  0  0  0  0  0  0
   25.9260    3.8560   31.0190 C   0  0  0  0  0  0  0  0  0  0  0  0
   25.1300    5.2750   30.1810 S   0  0  0  0  0  0  0  0  0  0  0  0
   21.1580    8.3490   32.4730 N   0  0  0  0  0  0  0  0  0  0  0  0
   19.0410   12.0860   34.3170 C   0  0  0  0  0  0  0  0  0  0  0  0
   19.0170   11.2060   35.5050 C   0  0  0  0  0  0  0  0  0  0  0  0
   18.0970   11.5300   36.5980 C   0  0  0  0  0  0  0  0  0  0  0  0
   17.2210   12.7140   36.5010 C   0  0  0  0  0  0  0  0  0  0  0  0
   17.2550   13.5770   35.3240 C   0  0  0  0  0  0  0  0  0  0  0  0
   16.5650   14.7890   35.3790 O   0  0  0  0  0  0  0  0  0  0  0  0
   16.5980   15.7380   34.2440 C   0  0  0  0  0  0  0  0  0  0  0  0
   16.2100   17.1360   34.7440 C   0  0  0  0  0  0  0  0  0  0  0  0
   14.9020   17.3360   35.4270 C   0  0  0  0  0  0  0  0  0  0  0  0
   14.6200   18.6470   36.0560 C   0  0  0  0  0  0  0  0  0  0  0  0
   15.5860   19.7490   36.0200 C   0  0  0  0  0  0  0  0  0  0  0  0
   16.8640   19.5350   35.3330 C   0  0  0  0  0  0  0  0  0  0  0  0
   17.1840   18.2440   34.6960 C   0  0  0  0  0  0  0  0  0  0  0  0
   18.1680   13.2300   34.2430 C   0  0  0  0  0  0  0  0  0  0  0  0
  1  2  1  0  0  0  0
  2  6  2  0  0  0  0
  2  3  1  0  0  0  0
  3  4  1  0  0  0  0
  4  5  2  0  0  0  0
  5  6  1  0  0  0  0
  6  7  1  0  0  0  0
  7 20  2  0  0  0  0
  7  8  1  0  0  0  0
  8  9  2  0  0  0  0
  9 10  1  0  0  0  0
 10 11  2  0  0  0  0
 11 12  1  0  0  0  0
 12 13  1  0  0  0  0
 13 14  2  0  0  0  0
 13 15  1  0  0  0  0
 15 19  1  0  0  0  0
 15 16  2  0  0  0  0
 16 17  1  0  0  0  0
 17 18  2  0  0  0  0
 18 19  1  0  0  0  0
 11 20  1  0  0  0  0
  5 21  1  0  0  0  0
 21 34  2  0  0  0  0
 21 22  1  0  0  0  0
 22 23  2  0  0  0  0
 23 24  1  0  0  0  0
 24 25  2  0  0  0  0
 25 26  1  0  0  0  0
 26 27  1  0  0  0  0
 27 28  1  0  0  0  0
 28 33  2  0  0  0  0
 28 29  1  0  0  0  0
 29 30  2  0  0  0  0
 30 31  1  0  0  0  0
 31 32  2  0  0  0  0
 32 33  1  0  0  0  0
 25 34  1  0  0  0  0
M  END
$$$$
vertex_jnk3_structure23_lig
