jnk.pp.1-55.sdf
  -OEChem-04100307473D

 28 31  0     0  0  0  0  0  0999 V2000
   22.2140   10.8780   30.6160 C   0  0  0  0  0  0  0  0  0  0  0  0
   21.3590   11.5070   31.7430 C   0  0  0  0  0  0  0  0  0  0  0  0
   21.2790   12.8570   31.8260 O   0  0  0  0  0  0  0  0  0  0  0  0
   20.4360   13.0650   32.8870 N   0  0  0  0  0  0  0  0  0  0  0  0
   19.9530   11.9980   33.4420 C   0  0  0  0  0  0  0  0  0  0  0  0
   20.5740   10.9090   32.6770 C   0  0  0  0  0  0  0  0  0  0  0  0
   20.2750    9.4680   32.7790 C   0  0  0  0  0  0  0  0  0  0  0  0
   18.9820    9.0930   33.1130 C   0  0  0  0  0  0  0  0  0  0  0  0
   18.6560    7.7460   33.2070 C   0  0  0  0  0  0  0  0  0  0  0  0
   19.6230    6.8790   32.9630 N   0  0  0  0  0  0  0  0  0  0  0  0
   20.8680    7.1530   32.6390 C   0  0  0  0  0  0  0  0  0  0  0  0
   21.6540    6.0640   32.4540 N   0  0  0  0  0  0  0  0  0  0  0  0
   22.7630    6.0130   31.6980 C   0  0  0  0  0  0  0  0  0  0  0  0
   23.4910    4.8660   31.8900 C   0  0  0  0  0  0  0  0  0  0  0  0
   24.7200    4.6860   31.2350 C   0  0  0  0  0  0  0  0  0  0  0  0
   25.2010    5.6990   30.3800 C   0  0  0  0  0  0  0  0  0  0  0  0
   24.4680    6.8680   30.1690 C   0  0  0  0  0  0  0  0  0  0  0  0
   23.2310    7.0050   30.8390 C   0  0  0  0  0  0  0  0  0  0  0  0
   25.0050    7.9900   29.2810 C   0  0  0  0  0  0  0  0  0  0  0  0
   26.1560    7.7040   28.6070 O   0  0  0  0  0  0  0  0  0  0  0  0
   24.4470    9.0640   29.1840 O   0  0  0  0  0  0  0  0  0  0  0  0
   21.2420    8.4820   32.5330 C   0  0  0  0  0  0  0  0  0  0  0  0
   19.0180   12.0580   34.5790 C   0  0  0  0  0  0  0  0  0  0  0  0
   19.1350   11.1380   35.6230 C   0  0  0  0  0  0  0  0  0  0  0  0
   18.2880   11.2540   36.7350 C   0  0  0  0  0  0  0  0  0  0  0  0
   17.3430   12.2760   36.7710 C   0  0  0  0  0  0  0  0  0  0  0  0
   17.2070   13.2000   35.7230 C   0  0  0  0  0  0  0  0  0  0  0  0
   18.0600   13.0820   34.6080 C   0  0  0  0  0  0  0  0  0  0  0  0
  1  2  1  0  0  0  0
  2  6  2  0  0  0  0
  2  3  1  0  0  0  0
  3  4  1  0  0  0  0
  4  5  2  0  0  0  0
  5  6  1  0  0  0  0
  6  7  1  0  0  0  0
  7 22  2  0  0  0  0
  7  8  1  0  0  0  0
  8  9  2  0  0  0  0
  9 10  1  0  0  0  0
 10 11  2  0  0  0  0
 11 12  1  0  0  0  0
 12 13  1  0  0  0  0
 13 18  2  0  0  0  0
 13 14  1  0  0  0  0
 14 15  2  0  0  0  0
 15 16  1  0  0  0  0
 16 17  2  0  0  0  0
 17 18  1  0  0  0  0
 17 19  1  0  0  0  0
 19 20  2  0  0  0  0
 19 21  1  0  0  0  0
 11 22  1  0  0  0  0
  5 23  1  0  0  0  0
 23 28  2  0  0  0  0
 23 24  1  0  0  0  0
 24 25  2  0  0  0  0
 25 26  1  0  0  0  0
 26 27  2  0  0  0  0
 27 28  1  0  0  0  0
M  END
$$$$
vertex_jnk3_structure15_lig
