jnk.pp.1-41.sdf
  -OEChem-04100307473D

 30 34  0     0  0  0  0  0  0999 V2000
   21.9740   11.0220   30.4940 C   0  0  0  0  0  0  0  0  0  0  0  0
   21.0780   11.5690   31.6030 C   0  0  0  0  0  0  0  0  0  0  0  0
   21.0290   12.9050   31.7220 O   0  0  0  0  0  0  0  0  0  0  0  0
   20.1700   13.0870   32.7710 N   0  0  0  0  0  0  0  0  0  0  0  0
   19.7140   12.0320   33.3690 C   0  0  0  0  0  0  0  0  0  0  0  0
   20.2730   10.9470   32.5280 C   0  0  0  0  0  0  0  0  0  0  0  0
   19.9000    9.5030   32.6550 C   0  0  0  0  0  0  0  0  0  0  0  0
   18.4980    9.1500   32.8900 C   0  0  0  0  0  0  0  0  0  0  0  0
   18.1390    7.7570   33.0020 C   0  0  0  0  0  0  0  0  0  0  0  0
   19.1610    6.8270   32.8710 N   0  0  0  0  0  0  0  0  0  0  0  0
   20.4920    7.0960   32.6430 C   0  0  0  0  0  0  0  0  0  0  0  0
   21.3150    5.9910   32.4210 N   0  0  0  0  0  0  0  0  0  0  0  0
   22.4690    5.9250   31.6050 C   0  0  0  0  0  0  0  0  0  0  0  0
   22.8510    6.8540   30.4910 C   0  0  0  0  0  0  0  0  0  0  0  0
   24.1330    6.7020   29.8310 C   0  0  0  0  0  0  0  0  0  0  0  0
   25.0670    5.6450   30.2410 C   0  0  0  0  0  0  0  0  0  0  0  0
   24.6760    4.7350   31.3310 C   0  0  0  0  0  0  0  0  0  0  0  0
   23.3800    4.8710   31.9990 C   0  0  0  0  0  0  0  0  0  0  0  0
   25.5980    3.7040   31.8210 C   0  0  0  0  0  0  0  0  0  0  0  0
   25.3810    3.0350   33.0460 N   0  0  0  0  0  0  0  0  0  0  0  0
   26.6590    2.4750   33.0780 N   0  0  0  0  0  0  0  0  0  0  0  0
   27.3230    2.7280   31.9230 N   0  0  0  0  0  0  0  0  0  0  0  0
   26.7210    3.3930   31.1080 N   0  0  0  0  0  0  0  0  0  0  0  0
   20.8950    8.4990   32.5410 C   0  0  0  0  0  0  0  0  0  0  0  0
   18.8410   12.0260   34.5990 C   0  0  0  0  0  0  0  0  0  0  0  0
   19.1460   11.1400   35.7230 C   0  0  0  0  0  0  0  0  0  0  0  0
   18.2630   11.1210   36.9060 C   0  0  0  0  0  0  0  0  0  0  0  0
   17.0900   11.9860   36.9520 C   0  0  0  0  0  0  0  0  0  0  0  0
   16.8000   12.8730   35.8140 C   0  0  0  0  0  0  0  0  0  0  0  0
   17.6710   12.8890   34.6510 C   0  0  0  0  0  0  0  0  0  0  0  0
  1  2  1  0  0  0  0
  2  6  2  0  0  0  0
  2  3  1  0  0  0  0
  3  4  1  0  0  0  0
  4  5  2  0  0  0  0
  5  6  1  0  0  0  0
  6  7  1  0  0  0  0
  7 24  2  0  0  0  0
  7  8  1  0  0  0  0
  8  9  2  0  0  0  0
  9 10  1  0  0  0  0
 10 11  2  0  0  0  0
 11 12  1  0  0  0  0
 12 13  1  0  0  0  0
 13 18  2  0  0  0  0
 13 14  1  0  0  0  0
 14 15  2  0  0  0  0
 15 16  1  0  0  0  0
 16 17  2  0  0  0  0
 17 18  1  0  0  0  0
 17 19  1  0  0  0  0
 19 23  2  0  0  0  0
 19 20  1  0  0  0  0
 20 21  2  0  0  0  0
 21 22  1  0  0  0  0
 22 23  1  0  0  0  0
 11 24  1  0  0  0  0
  5 25  1  0  0  0  0
 25 30  2  0  0  0  0
 25 26  1  0  0  0  0
 26 27  2  0  0  0  0
 27 28  1  0  0  0  0
 28 29  2  0  0  0  0
 29 30  1  0  0  0  0
M  END
$$$$
vertex_jnk3_structure17_lig
