jnk.pp.1-52.sdf
  -OEChem-04100307473D

 27 30  0     0  0  0  0  0  0999 V2000
   21.8740   10.2820   30.3460 C   0  0  0  0  0  0  0  0  0  0  0  0
   21.2830   10.9960   31.4870 C   0  0  0  0  0  0  0  0  0  0  0  0
   21.4060   12.3510   31.7030 O   0  0  0  0  0  0  0  0  0  0  0  0
   20.7250   12.7600   32.7660 N   0  0  0  0  0  0  0  0  0  0  0  0
   20.1210   11.6590   33.2920 C   0  0  0  0  0  0  0  0  0  0  0  0
   20.4730   10.4770   32.4830 C   0  0  0  0  0  0  0  0  0  0  0  0
   20.0900    9.0380   32.6700 C   0  0  0  0  0  0  0  0  0  0  0  0
   18.8530    8.6380   33.2060 C   0  0  0  0  0  0  0  0  0  0  0  0
   18.6090    7.2560   33.3380 C   0  0  0  0  0  0  0  0  0  0  0  0
   19.5180    6.3540   32.9590 N   0  0  0  0  0  0  0  0  0  0  0  0
   20.6800    6.7600   32.4550 C   0  0  0  0  0  0  0  0  0  0  0  0
   21.5600    5.7840   32.0910 N   0  0  0  0  0  0  0  0  0  0  0  0
   22.7580    5.9540   31.4350 C   0  0  0  0  0  0  0  0  0  0  0  0
   23.4680    4.8080   31.0110 C   0  0  0  0  0  0  0  0  0  0  0  0
   24.7130    4.9070   30.3530 C   0  0  0  0  0  0  0  0  0  0  0  0
   25.2540    6.1840   30.1180 C   0  0  0  0  0  0  0  0  0  0  0  0
   24.5580    7.3320   30.5380 C   0  0  0  0  0  0  0  0  0  0  0  0
   25.0890    8.6490   30.3520 C   0  0  0  0  0  0  0  0  0  0  0  0
   25.5000    9.7250   30.2240 N   0  0  0  0  0  0  0  0  0  0  0  0
   23.3260    7.2170   31.1830 C   0  0  0  0  0  0  0  0  0  0  0  0
   20.9790    8.0490   32.3010 N   0  0  0  0  0  0  0  0  0  0  0  0
   19.2310   11.7450   34.4760 C   0  0  0  0  0  0  0  0  0  0  0  0
   19.5470   11.0750   35.6800 C   0  0  0  0  0  0  0  0  0  0  0  0
   18.6840   11.1880   36.7930 C   0  0  0  0  0  0  0  0  0  0  0  0
   17.5070   11.9670   36.6960 C   0  0  0  0  0  0  0  0  0  0  0  0
   17.1980   12.6500   35.4990 C   0  0  0  0  0  0  0  0  0  0  0  0
   18.0630   12.5390   34.3890 C   0  0  0  0  0  0  0  0  0  0  0  0
  1  2  1  0  0  0  0
  2  6  2  0  0  0  0
  2  3  1  0  0  0  0
  3  4  1  0  0  0  0
  4  5  2  0  0  0  0
  5  6  1  0  0  0  0
  6  7  1  0  0  0  0
  7 21  2  0  0  0  0
  7  8  1  0  0  0  0
  8  9  2  0  0  0  0
  9 10  1  0  0  0  0
 10 11  2  0  0  0  0
 11 12  1  0  0  0  0
 12 13  1  0  0  0  0
 13 20  2  0  0  0  0
 13 14  1  0  0  0  0
 14 15  2  0  0  0  0
 15 16  1  0  0  0  0
 16 17  2  0  0  0  0
 17 18  1  0  0  0  0
 18 19  3  0  0  0  0
 17 20  1  0  0  0  0
 11 21  1  0  0  0  0
  5 22  1  0  0  0  0
 22 27  2  0  0  0  0
 22 23  1  0  0  0  0
 23 24  2  0  0  0  0
 24 25  1  0  0  0  0
 25 26  2  0  0  0  0
 26 27  1  0  0  0  0
M  END
$$$$
vertex_jnk3_structure7_lig
