jnk.pp.1-45.sdf
  -OEChem-04100307463D

 25 28  0     0  0  0  0  0  0999 V2000
   22.5820   14.9830   30.1510 C   0  4  0  0  0  0  0  0  0  0  0  0
   22.5770   16.4520   30.1340 C   0  0  0  0  0  0  0  0  0  0  0  0
   23.2910   17.2120   31.1460 C   0  0  0  0  0  0  0  0  0  0  0  0
   24.0200   16.5180   32.1900 C   0  0  0  0  0  0  0  0  0  0  0  0
   24.0510   15.0530   32.2470 C   0  4  0  0  0  0  0  0  0  0  0  0
   23.3270   14.2520   31.2250 C   0  0  0  0  0  0  0  0  0  0  0  0
   23.4090   12.7110   31.2880 C   0  0  0  0  0  0  0  0  0  0  0  0
   22.1660   11.9290   31.7310 C   0  0  0  0  0  0  0  0  0  0  0  0
   20.9260   12.4290   32.0030 N   0  0  0  0  0  0  0  0  0  0  0  0
   20.1510   11.3350   32.2350 C   0  0  0  0  0  0  0  0  0  0  0  0
   20.9940   10.2030   32.0860 C   0  0  0  0  0  0  0  0  0  0  0  0
   22.2490   10.5870   31.7740 N   0  0  0  0  0  0  0  0  0  0  0  0
   20.5930    8.7350   32.2290 C   0  0  0  0  0  0  0  0  0  0  0  0
   19.3250    8.2870   32.8020 C   0  0  0  0  0  0  0  0  0  0  0  0
   19.1720    6.8440   32.8480 C   0  0  0  0  0  0  0  0  0  0  0  0
   20.1320    5.9470   32.3920 N   0  0  0  0  0  0  0  0  0  0  0  0
   21.3210    6.3590   31.8520 C   0  0  0  0  0  0  0  0  0  0  0  0
   22.2600    5.4180   31.3890 N   0  0  0  0  0  0  0  0  0  0  0  0
   23.6060    5.8300   30.9440 C   0  0  0  0  0  0  0  0  0  0  0  0
   24.6220    4.8020   31.4510 C   0  0  0  0  0  0  0  0  0  0  0  0
   26.0280    4.9900   30.8910 C   0  0  0  0  0  0  0  0  0  0  0  0
   26.0190    5.0200   29.3690 C   0  0  0  0  0  0  0  0  0  0  0  0
   25.0620    6.0820   28.8340 C   0  0  0  0  0  0  0  0  0  0  0  0
   23.6540    5.9280   29.4160 C   0  0  0  0  0  0  0  0  0  0  0  0
   21.5440    7.7260   31.7750 N   0  0  0  0  0  0  0  0  0  0  0  0
  1  6  2  0  0  0  0
  1  2  1  0  0  0  0
  2  3  2  0  0  0  0
  3  4  1  0  0  0  0
  4  5  2  0  0  0  0
  5  6  1  0  0  0  0
  6  7  1  0  0  0  0
  7  8  1  0  0  0  0
  8 12  1  0  0  0  0
  8  9  2  0  0  0  0
  9 10  1  0  0  0  0
 10 11  2  0  0  0  0
 11 12  1  0  0  0  0
 11 13  1  0  0  0  0
 13 25  2  0  0  0  0
 13 14  1  0  0  0  0
 14 15  2  0  0  0  0
 15 16  1  0  0  0  0
 16 17  2  0  0  0  0
 17 18  1  0  0  0  0
 18 19  1  0  0  0  0
 19 24  1  0  0  0  0
 19 20  1  0  0  0  0
 20 21  1  0  0  0  0
 21 22  1  0  0  0  0
 22 23  1  0  0  0  0
 23 24  1  0  0  0  0
 17 25  1  0  0  0  0
M  RAD  2   1   2   5   2
M  END
$$$$
vertex_jnk3_structure52_lig
