jnk.pp.1-13.sdf
  -OEChem-04100307473D

 26 29  0     0  0  0  0  0  0999 V2000
   17.9140    7.7230   33.3460 O   0  0  0  0  0  0  0  0  0  0  0  0
   18.8150    6.8570   32.8070 N   0  0  0  0  0  0  0  0  0  0  0  0
   20.0680    7.2860   32.1840 C   0  0  0  0  0  0  0  0  0  0  0  0
   20.5730    6.2160   31.4840 C   0  0  0  0  0  0  0  0  0  0  0  0
   19.9710    5.1650   31.4390 O   0  0  0  0  0  0  0  0  0  0  0  0
   21.7670    6.4770   30.9180 N   0  0  0  0  0  0  0  0  0  0  0  0
   22.4480    5.5250   30.0240 C   0  0  0  0  0  0  0  0  0  0  0  0
   23.4140    4.6080   30.7360 C   0  0  0  0  0  0  0  0  0  0  0  0
   22.8830    3.6400   31.7330 C   0  0  0  0  0  0  0  0  0  0  0  0
   23.8020    2.7940   32.4950 C   0  0  0  0  0  0  0  0  0  0  0  0
   23.2610    1.8850   33.3130 F   0  0  0  0  0  0  0  0  0  0  0  0
   25.2690    2.9340   32.2810 C   0  0  0  0  0  0  0  0  0  0  0  0
   25.7660    3.9090   31.2780 C   0  0  0  0  0  0  0  0  0  0  0  0
   27.2220    4.1500   31.0130 C   0  0  0  0  0  0  0  0  0  0  0  0
   27.5070    4.5740   29.6110 O   0  0  0  0  0  0  0  0  0  0  0  0
   26.7890    5.7780   29.2240 C   0  0  0  0  0  0  0  0  0  0  0  0
   25.3380    5.5570   29.4740 O   0  0  0  0  0  0  0  0  0  0  0  0
   24.8420    4.7500   30.4920 C   0  0  0  0  0  0  0  0  0  0  0  0
   22.1150    7.7670   31.2290 C   0  0  0  0  0  0  0  0  0  0  0  0
   23.3030    8.5530   30.8880 C   0  0  0  0  0  0  0  0  0  0  0  0
   23.4190    9.9220   31.3730 C   0  0  0  0  0  0  0  0  0  0  0  0
   22.3470   10.5380   32.2080 C   0  0  0  0  0  0  0  0  0  0  0  0
   21.1370    9.7890   32.5720 C   0  0  0  0  0  0  0  0  0  0  0  0
   20.1150   10.4520   33.4150 C   0  0  0  0  0  0  0  0  0  0  0  0
   20.1490   11.7090   33.8960 C   0  0  0  0  0  0  0  0  0  0  0  0
   20.9850    8.3840   32.1000 C   0  0  0  0  0  0  0  0  0  0  0  0
  1  2  1  0  0  0  0
  2  3  2  0  0  0  0
  3 26  1  0  0  0  0
  3  4  1  0  0  0  0
  4  5  2  0  0  0  0
  4  6  1  0  0  0  0
  6  7  1  0  0  0  0
  7  8  1  0  0  0  0
  8 18  2  0  0  0  0
  8  9  1  0  0  0  0
  9 10  2  0  0  0  0
 10 11  1  0  0  0  0
 10 12  1  0  0  0  0
 12 13  2  0  0  0  0
 13 18  1  0  0  0  0
 13 14  1  0  0  0  0
 14 15  1  0  0  0  0
 15 16  1  0  0  0  0
 16 17  1  0  0  0  0
 17 18  1  0  0  0  0
  6 19  1  0  0  0  0
 19 26  2  0  0  0  0
 19 20  1  0  0  0  0
 20 21  2  0  0  0  0
 21 22  1  0  0  0  0
 22 23  2  0  0  0  0
 23 24  1  0  0  0  0
 24 25  2  0  0  0  0
 23 26  1  0  0  0  0
M  END
$$$$
vertex_jnk3_structure44_lig
