jnk.pp.1-22.sdf
  -OEChem-04100307473D

 29 33  0     0  0  0  0  0  0999 V2000
   21.9130   10.5080   30.2390 C   0  0  0  0  0  0  0  0  0  0  0  0
   21.1620   11.2210   31.3620 C   0  0  0  0  0  0  0  0  0  0  0  0
   21.2460   12.5700   31.4040 O   0  0  0  0  0  0  0  0  0  0  0  0
   20.4090   12.8700   32.4510 N   0  0  0  0  0  0  0  0  0  0  0  0
   19.9010   11.9020   33.1550 C   0  0  0  0  0  0  0  0  0  0  0  0
   20.3740   10.7230   32.3730 C   0  0  0  0  0  0  0  0  0  0  0  0
   19.9940    9.3050   32.6270 C   0  0  0  0  0  0  0  0  0  0  0  0
   18.6760    8.9510   33.1250 C   0  0  0  0  0  0  0  0  0  0  0  0
   18.5140    7.5340   33.3130 C   0  0  0  0  0  0  0  0  0  0  0  0
   19.5200    6.6430   33.0370 N   0  0  0  0  0  0  0  0  0  0  0  0
   20.7390    7.0630   32.5560 C   0  0  0  0  0  0  0  0  0  0  0  0
   21.7240    6.1390   32.2210 N   0  0  0  0  0  0  0  0  0  0  0  0
   22.9220    6.2550   31.4760 C   0  0  0  0  0  0  0  0  0  0  0  0
   23.5220    4.9530   31.1160 C   0  0  0  0  0  0  0  0  0  0  0  0
   24.8010    4.8910   30.4060 C   0  0  0  0  0  0  0  0  0  0  0  0
   25.4810    6.1370   30.0490 C   0  0  0  0  0  0  0  0  0  0  0  0
   26.7660    6.3070   29.3830 C   0  0  0  0  0  0  0  0  0  0  0  0
   27.5880    5.4860   28.9860 O   0  0  0  0  0  0  0  0  0  0  0  0
   26.9750    7.8010   29.2390 C   0  0  0  0  0  0  0  0  0  0  0  0
   25.8030    8.5870   29.8580 C   0  0  0  0  0  0  0  0  0  0  0  0
   24.9320    7.4280   30.3670 C   0  0  0  0  0  0  0  0  0  0  0  0
   23.6610    7.4960   31.0760 C   0  0  0  0  0  0  0  0  0  0  0  0
   20.9630    8.3920   32.3620 N   0  0  0  0  0  0  0  0  0  0  0  0
   19.0700   11.9870   34.3990 C   0  0  0  0  0  0  0  0  0  0  0  0
   19.4430   11.2210   35.6050 C   0  0  0  0  0  0  0  0  0  0  0  0
   18.5870   11.2670   36.7990 C   0  0  0  0  0  0  0  0  0  0  0  0
   17.3700   12.0690   36.7980 C   0  0  0  0  0  0  0  0  0  0  0  0
   17.0030   12.8350   35.6020 C   0  0  0  0  0  0  0  0  0  0  0  0
   17.8450   12.7950   34.4090 C   0  0  0  0  0  0  0  0  0  0  0  0
  1  2  1  0  0  0  0
  2  6  2  0  0  0  0
  2  3  1  0  0  0  0
  3  4  1  0  0  0  0
  4  5  2  0  0  0  0
  5  6  1  0  0  0  0
  6  7  1  0  0  0  0
  7 23  2  0  0  0  0
  7  8  1  0  0  0  0
  8  9  2  0  0  0  0
  9 10  1  0  0  0  0
 10 11  2  0  0  0  0
 11 12  1  0  0  0  0
 12 13  1  0  0  0  0
 13 22  2  0  0  0  0
 13 14  1  0  0  0  0
 14 15  2  0  0  0  0
 15 16  1  0  0  0  0
 16 21  2  0  0  0  0
 16 17  1  0  0  0  0
 17 18  2  0  0  0  0
 17 19  1  0  0  0  0
 19 20  1  0  0  0  0
 20 21  1  0  0  0  0
 21 22  1  0  0  0  0
 11 23  1  0  0  0  0
  5 24  1  0  0  0  0
 24 29  2  0  0  0  0
 24 25  1  0  0  0  0
 25 26  2  0  0  0  0
 26 27  1  0  0  0  0
 27 28  2  0  0  0  0
 28 29  1  0  0  0  0
M  END
$$$$
vertex_jnk3_structure14_lig
