jnk.pp.1-43.sdf
  -OEChem-12220712583D

 37 40  0     0  0  0  0  0  0999 V2000
   18.4275   10.0665   34.6458 C   0  0  0  0  0  0  0  0  0  0  0  0
   17.9709   10.5295   33.4313 C   0  0  0  0  0  0  0  0  0  0  0  0
   19.3381   10.8411   35.3259 C   0  0  0  0  0  0  0  0  0  0  0  0
   23.3681    5.0487   31.4329 C   0  0  0  0  0  0  0  0  0  0  0  0
   24.9134    6.4513   30.1992 C   0  0  0  0  0  0  0  0  0  0  0  0
   24.3290    4.0412   31.5004 C   0  0  0  0  0  0  0  0  0  0  0  0
   25.8688    5.4353   30.2607 C   0  0  0  0  0  0  0  0  0  0  0  0
   18.5159   11.6840   32.8628 C   0  0  0  0  0  0  0  0  0  0  0  0
   19.9799   11.8677   34.6427 C   0  0  0  0  0  0  0  0  0  0  0  0
   22.9689   11.4003   29.4752 C   0  0  0  0  0  0  0  0  0  0  0  0
   21.6774    8.4814   32.4458 C   0  0  0  0  0  0  0  0  0  0  0  0
   23.6459    6.2563   30.7658 C   0  0  0  0  0  0  0  0  0  0  0  0
   21.8401   10.5010   31.7332 C   0  0  0  0  0  0  0  0  0  0  0  0
   25.5674    4.2404   30.9050 C   0  0  0  0  0  0  0  0  0  0  0  0
   19.6925   12.1786   33.3368 C   0  0  0  0  0  0  0  0  0  0  0  0
   22.5322    9.6987   30.8254 C   0  0  0  0  0  0  0  0  0  0  0  0
   21.7117   11.8612   31.3894 C   0  0  0  0  0  0  0  0  0  0  0  0
   22.5293    7.2158   30.4746 C   0  0  0  0  0  0  0  0  0  0  0  0
   23.1192   10.0811   29.6798 N   0  0  0  0  0  0  0  0  0  0  0  0
   22.3034   12.2908   30.2361 N   0  0  0  0  0  0  0  0  0  0  0  0
   21.3814    9.7190   32.7717 N   0  0  0  0  0  0  0  0  0  0  0  0
   22.4090    8.4110   31.2914 N   0  0  0  0  0  0  0  0  0  0  0  0
   26.4871    3.2687   30.9565 F   0  0  0  0  0  0  0  0  0  0  0  0
   20.7792   13.0906   32.2917 S   0  0  0  0  0  0  0  0  0  0  0  0
   17.9987    9.1744   35.0784 H   0  0  0  0  0  0  0  0  0  0  0  0
   17.1692    9.9920   32.9463 H   0  0  0  0  0  0  0  0  0  0  0  0
   19.6223   10.6170   36.3477 H   0  0  0  0  0  0  0  0  0  0  0  0
   22.3858    4.8634   31.8636 H   0  0  0  0  0  0  0  0  0  0  0  0
   25.1444    7.3690   29.6602 H   0  0  0  0  0  0  0  0  0  0  0  0
   24.1147    3.1005   31.9972 H   0  0  0  0  0  0  0  0  0  0  0  0
   26.8437    5.5638   29.8006 H   0  0  0  0  0  0  0  0  0  0  0  0
   18.0902   12.1680   31.9963 H   0  0  0  0  0  0  0  0  0  0  0  0
   20.7730   12.3973   35.1290 H   0  0  0  0  0  0  0  0  0  0  0  0
   23.4400   11.8009   28.5829 H   0  0  0  0  0  0  0  0  0  0  0  0
   21.3479    7.6007   32.9812 H   0  0  0  0  0  0  0  0  0  0  0  0
   22.6000    7.5205   29.4246 H   0  0  0  0  0  0  0  0  0  0  0  0
   21.5854    6.6721   30.6010 H   0  0  0  0  0  0  0  0  0  0  0  0
  1  2  2  0  0  0  0
  1  3  1  0  0  0  0
  2  8  1  0  0  0  0
  3  9  2  0  0  0  0
  4  6  2  0  0  0  0
  4 12  1  0  0  0  0
  5  7  1  0  0  0  0
  5 12  2  0  0  0  0
  6 14  1  0  0  0  0
  7 14  2  0  0  0  0
  8 15  2  0  0  0  0
  9 15  1  0  0  0  0
 10 19  2  0  0  0  0
 10 20  1  0  0  0  0
 11 21  2  0  0  0  0
 11 22  1  0  0  0  0
 12 18  1  0  0  0  0
 13 16  2  0  0  0  0
 13 17  1  0  0  0  0
 13 21  1  0  0  0  0
 14 23  1  0  0  0  0
 15 24  1  0  0  0  0
 16 19  1  0  0  0  0
 16 22  1  0  0  0  0
 17 20  2  0  0  0  0
 17 24  1  0  0  0  0
 18 22  1  0  0  0  0
  1 25  1  0  0  0  0
  2 26  1  0  0  0  0
  3 27  1  0  0  0  0
  4 28  1  0  0  0  0
  5 29  1  0  0  0  0
  6 30  1  0  0  0  0
  7 31  1  0  0  0  0
  8 32  1  0  0  0  0
  9 33  1  0  0  0  0
 10 34  1  0  0  0  0
 11 35  1  0  0  0  0
 18 36  1  0  0  0  0
 18 37  1  0  0  0  0
M  END
$$$$
