jnk.pp.1-20.sdf
  -OEChem-04100307473D

 24 26  0     0  0  0  0  0  0999 V2000
   18.3450    7.6900   33.1790 C   0  0  0  0  0  0  0  0  0  0  0  0
   19.3850    6.7020   33.0100 O   0  0  0  0  0  0  0  0  0  0  0  0
   20.4720    7.1470   32.3300 C   0  0  0  0  0  0  0  0  0  0  0  0
   21.3060    6.1700   31.8150 C   0  0  0  0  0  0  0  0  0  0  0  0
   22.4430    6.5810   31.0890 C   0  0  0  0  0  0  0  0  0  0  0  0
   22.7350    7.9560   30.8870 C   0  0  0  0  0  0  0  0  0  0  0  0
   23.8440    8.3670   30.1550 O   0  0  0  0  0  0  0  0  0  0  0  0
   24.7190    7.2910   29.8160 C   0  0  0  0  0  0  0  0  0  0  0  0
   21.8750    8.9210   31.4270 C   0  0  0  0  0  0  0  0  0  0  0  0
   22.1690   10.2790   31.2810 N   0  0  0  0  0  0  0  0  0  0  0  0
   21.4470   11.3770   31.5880 C   0  0  0  0  0  0  0  0  0  0  0  0
   20.3210   11.4380   32.3040 N   0  0  0  0  0  0  0  0  0  0  0  0
   19.8610   12.8430   32.5490 C   0  0  0  0  0  0  0  0  0  0  0  0
   20.5650   13.7340   31.8560 C   0  0  0  0  0  0  0  0  0  0  0  0
   21.9120   12.9260   31.0520 S   0  0  0  0  0  0  0  0  0  0  0  0
   18.7660   13.2280   33.5120 C   0  0  0  0  0  0  0  0  0  0  0  0
   17.8820   14.3120   33.2710 C   0  0  0  0  0  0  0  0  0  0  0  0
   16.7930   14.5940   34.1270 C   0  0  0  0  0  0  0  0  0  0  0  0
   16.5740   13.7900   35.2690 C   0  0  0  0  0  0  0  0  0  0  0  0
   17.4810   12.7120   35.5230 C   0  0  0  0  0  0  0  0  0  0  0  0
   17.3280   11.7470   36.8820 Cl  0  0  0  0  0  0  0  0  0  0  0  0
   18.5650   12.4230   34.6700 C   0  0  0  0  0  0  0  0  0  0  0  0
   19.4730   11.2630   35.0070 C   0  0  0  0  0  0  0  0  0  0  0  0
   20.7500    8.5130   32.1410 C   0  0  0  0  0  0  0  0  0  0  0  0
  1  2  1  0  0  0  0
  2  3  1  0  0  0  0
  3 24  2  0  0  0  0
  3  4  1  0  0  0  0
  4  5  2  0  0  0  0
  5  6  1  0  0  0  0
  6  7  1  0  0  0  0
  7  8  1  0  0  0  0
  6  9  2  0  0  0  0
  9 10  1  0  0  0  0
 10 11  1  0  0  0  0
 11 15  1  0  0  0  0
 11 12  2  0  0  0  0
 12 13  1  0  0  0  0
 13 14  2  0  0  0  0
 14 15  1  0  0  0  0
 13 16  1  0  0  0  0
 16 22  2  0  0  0  0
 16 17  1  0  0  0  0
 17 18  2  0  0  0  0
 18 19  1  0  0  0  0
 19 20  2  0  0  0  0
 20 21  1  0  0  0  0
 20 22  1  0  0  0  0
 22 23  1  0  0  0  0
  9 24  1  0  0  0  0
M  END
$$$$
vertex_jnk3_structure1_lig
