jnk.pp.1-6.sdf
  -OEChem-12220712583D

 29 31  0     0  0  0  0  0  0999 V2000
   18.4139   14.1024   32.8577 C   0  0  0  0  0  0  0  0  0  0  0  0
   17.2688   14.4055   33.5988 C   0  0  0  0  0  0  0  0  0  0  0  0
   21.3672   13.6282   31.7969 C   0  0  0  0  0  0  0  0  0  0  0  0
   22.2883   12.7818   31.1359 C   0  0  0  0  0  0  0  0  0  0  0  0
   17.8040   12.6222   35.1295 C   0  0  0  0  0  0  0  0  0  0  0  0
   19.2637   13.0386   33.2234 C   0  0  0  0  0  0  0  0  0  0  0  0
   18.9282   12.2955   34.3657 C   0  0  0  0  0  0  0  0  0  0  0  0
   16.9799   13.6649   34.7333 C   0  0  0  0  0  0  0  0  0  0  0  0
   20.4721   12.8000   32.4370 C   0  0  0  0  0  0  0  0  0  0  0  0
   21.9257   11.4634   31.3917 C   0  0  0  0  0  0  0  0  0  0  0  0
   22.2372    9.0282   31.2531 C   0  0  0  0  0  0  0  0  0  0  0  0
   22.9624    7.8743   30.6553 C   0  0  0  0  0  0  0  0  0  0  0  0
   21.4733    6.7726   32.0465 C   0  0  0  0  0  0  0  0  0  0  0  0
   22.5576   10.2817   30.9098 C   0  0  0  0  0  0  0  0  0  0  0  0
   22.3850    6.7049   31.0466 N   0  0  0  0  0  0  0  0  0  0  0  0
   23.9616    7.9509   29.9584 O   0  0  0  0  0  0  0  0  0  0  0  0
   21.0394    5.8268   32.6797 O   0  0  0  0  0  0  0  0  0  0  0  0
   20.8062   11.5022   32.1925 O   0  0  0  0  0  0  0  0  0  0  0  0
   19.7394   11.2792   34.7911 O   0  0  0  0  0  0  0  0  0  0  0  0
   15.9065   13.9704   35.4731 F   0  0  0  0  0  0  0  0  0  0  0  0
   21.0528    8.4374   32.3541 S   0  0  0  0  0  0  0  0  0  0  0  0
   18.6431   14.7147   31.9880 H   0  0  0  0  0  0  0  0  0  0  0  0
   16.6225   15.2252   33.3042 H   0  0  0  0  0  0  0  0  0  0  0  0
   21.3543   14.7086   31.8019 H   0  0  0  0  0  0  0  0  0  0  0  0
   23.1285   13.0936   30.5303 H   0  0  0  0  0  0  0  0  0  0  0  0
   17.5729   12.1058   36.0528 H   0  0  0  0  0  0  0  0  0  0  0  0
   23.3646   10.4298   30.1943 H   0  0  0  0  0  0  0  0  0  0  0  0
   22.8100    5.8226   30.8139 H   0  0  0  0  0  0  0  0  0  0  0  0
   19.3001   10.7862   35.5018 H   0  0  0  0  0  0  0  0  0  0  0  0
  1  2  2  0  0  0  0
  1  6  1  0  0  0  0
  2  8  1  0  0  0  0
  3  4  1  0  0  0  0
  3  9  2  0  0  0  0
  4 10  2  0  0  0  0
  5  7  1  0  0  0  0
  5  8  2  0  0  0  0
  6  7  2  0  0  0  0
  6  9  1  0  0  0  0
  7 19  1  0  0  0  0
  8 20  1  0  0  0  0
  9 18  1  0  0  0  0
 10 14  1  0  0  0  0
 10 18  1  0  0  0  0
 11 12  1  0  0  0  0
 11 14  2  0  0  0  0
 11 21  1  0  0  0  0
 12 15  1  0  0  0  0
 12 16  2  0  0  0  0
 13 15  1  0  0  0  0
 13 17  2  0  0  0  0
 13 21  1  0  0  0  0
  1 22  1  0  0  0  0
  2 23  1  0  0  0  0
  3 24  1  0  0  0  0
  4 25  1  0  0  0  0
  5 26  1  0  0  0  0
 14 27  1  0  0  0  0
 15 28  1  0  0  0  0
 19 29  1  0  0  0  0
M  END
$$$$
