@<TRIPOS>MOLECULE
*****
   58    59     0     0     0
SMALL
NO_CHARGES

@<TRIPOS>ATOM
      1 C1         15.4600   12.5400   18.0600 C.3       1 LG51        0.0000
      2 H1         16.2200   13.1000   17.5300 H         1 LG51        0.0000
      3 H2         15.1000   13.1500   18.8900 H         1 LG51        0.0000
      4 H3         15.9400   11.6000   18.3500 H         1 LG51        0.0000
      5 C2         14.4000   11.9900   17.1100 C.3       1 LG51        0.0000
      6 H4         14.9200   11.4100   16.3500 H         1 LG51        0.0000
      7 H5         13.7400   11.2900   17.6200 H         1 LG51        0.0000
      8 C3         13.5000   13.0800   16.5100 C.3       1 LG51        0.0000
      9 C4         14.3100   14.2900   16.0500 C.3       1 LG51        0.0000
     10 H6         13.8000   14.9100   15.3200 H         1 LG51        0.0000
     11 H7         14.4100   15.0000   16.8700 H         1 LG51        0.0000
     12 H8         15.2500   14.0900   15.5400 H         1 LG51        0.0000
     13 C5         12.5300   13.5100   17.6100 C.3       1 LG51        0.0000
     14 H9         11.7900   14.2400   17.2700 H         1 LG51        0.0000
     15 H10        11.9900   12.6500   18.0100 H         1 LG51        0.0000
     16 H11        13.1600   13.9900   18.3600 H         1 LG51        0.0000
     17 C6         12.6000   12.4200   15.4700 C.2       1 LG51        0.0000
     18 O1         11.4700   12.0000   15.6600 O.2       1 LG51        0.0000
     19 C7         13.0900   12.2300   14.0300 C.2       1 LG51        0.0000
     20 O2         13.9400   11.3800   13.8000 O.2       1 LG51        0.0000
     21 N1         12.5000   12.9400   13.0600 N.am      1 LG51        0.0000
     22 C8         11.6400   14.0800   13.2800 C.3       1 LG51        0.0000
     23 H12        11.0700   14.0800   14.2100 H         1 LG51        0.0000
     24 H13        12.3100   14.9400   13.3600 H         1 LG51        0.0000
     25 C9         10.6100   14.3500   12.1800 C.3       1 LG51        0.0000
     26 H14         9.7100   13.7600   12.3300 H         1 LG51        0.0000
     27 H15        10.2100   15.3600   12.3300 H         1 LG51        0.0000
     28 C10        11.1500   14.1700   10.7600 C.3       1 LG51        0.0000
     29 H16        10.3800   14.4700   10.0500 H         1 LG51        0.0000
     30 H17        11.9600   14.8900   10.6100 H         1 LG51        0.0000
     31 C11        11.8100   12.8000   10.6800 C.3       1 LG51        0.0000
     32 H18        11.0300   12.0400   10.7300 H         1 LG51        0.0000
     33 H19        12.3100   12.6700    9.7100 H         1 LG51        0.0000
     34 C12        12.9200   12.6200   11.7100 C.3       1 LG51        0.0000
     35 H20        13.1100   11.5500   11.6800 H         1 LG51        0.0000
     36 C13        14.2200   13.2200   11.2000 C.2       1 LG51        0.0000
     37 O3         15.0400   12.7500   10.4300 O.2       1 LG51        0.0000
     38 O4         14.3400   14.4400   11.7200 O.3       1 LG51        0.0000
     39 C14        15.4600   15.3000   11.6800 C.3       1 LG51        0.0000
     40 H21        15.5000   15.6600   10.6500 H         1 LG51        0.0000
     41 H22        16.3700   14.7700   11.9700 H         1 LG51        0.0000
     42 C15        15.1700   16.4800   12.6000 C.3       1 LG51        0.0000
     43 H23        14.7800   16.1100   13.5500 H         1 LG51        0.0000
     44 H24        14.3700   17.0900   12.1800 H         1 LG51        0.0000
     45 C16        16.4100   17.3400   12.8400 C.3       1 LG51        0.0000
     46 H25        16.0000   18.1900   13.3800 H         1 LG51        0.0000
     47 H26        16.6600   17.7500   11.8600 H         1 LG51        0.0000
     48 C17        17.5300   16.7800   13.6800 C.ar      1 LG51        0.0000
     49 C18        18.7200   16.4000   13.0500 C.ar      1 LG51        0.0000
     50 H27        18.8800   16.4500   11.9800 H         1 LG51        0.0000
     51 C19        19.7000   15.8000   13.8500 C.ar      1 LG51        0.0000
     52 H28        20.6300   15.4200   13.4600 H         1 LG51        0.0000
     53 C20        19.5500   15.7100   15.2400 C.ar      1 LG51        0.0000
     54 H29        20.4600   15.3700   15.7300 H         1 LG51        0.0000
     55 C21        18.4000   16.2000   15.8600 C.ar      1 LG51        0.0000
     56 H30        18.2500   16.1900   16.9300 H         1 LG51        0.0000
     57 C22        17.3300   16.6200   15.0600 C.ar      1 LG51        0.0000
     58 H31        16.4500   16.9800   15.5800 H         1 LG51        0.0000
@<TRIPOS>BOND
     1   31   33 1
     2   28   29 1
     3   36   37 2
     4   28   30 1
     5   39   40 1
     6   31   32 1
     7   28   31 1
     8   31   34 1
     9   25   28 1
    10   34   36 1
    11   36   38 1
    12   34   35 1
    13   38   39 1
    14   39   41 1
    15   39   42 1
    16   21   34 1
    17   45   47 1
    18   49   50 1
    19   25   26 1
    20   25   27 1
    21   22   25 1
    22   42   44 1
    23   42   45 1
    24   42   43 1
    25   45   46 1
    26   45   48 1
    27   48   49 ar
    28   49   51 ar
    29   21   22 1
    30   19   21 am
    31   22   24 1
    32   22   23 1
    33   51   52 1
    34   48   57 ar
    35   19   20 2
    36   51   53 ar
    37   17   19 1
    38   57   58 1
    39   55   57 ar
    40   53   54 1
    41   53   55 ar
    42    9   10 1
    43   17   18 2
    44    8   17 1
    45    9   12 1
    46   55   56 1
    47    8    9 1
    48    9   11 1
    49    5    6 1
    50    5    8 1
    51    8   13 1
    52    5    7 1
    53    1    5 1
    54   13   14 1
    55    1    2 1
    56   13   15 1
    57   13   16 1
    58    1    4 1
    59    1    3 1
