@<TRIPOS>MOLECULE
*****
   70    71     0     0     0
SMALL
NO_CHARGES

@<TRIPOS>ATOM
      1 C1         16.8600   11.5000   18.1000 C.3       1 LG61        0.0000
      2 H1         17.5600   10.8300   17.5900 H         1 LG61        0.0000
      3 H2         17.2200   11.7100   19.1100 H         1 LG61        0.0000
      4 H3         15.9500   10.8900   18.1200 H         1 LG61        0.0000
      5 C2         16.5600   12.8200   17.3900 C.3       1 LG61        0.0000
      6 H4         15.7700   13.1800   18.0600 H         1 LG61        0.0000
      7 H5         17.3500   13.5600   17.4500 H         1 LG61        0.0000
      8 C3         16.0900   12.6000   15.9500 C.3       1 LG61        0.0000
      9 C4         15.9400   14.0100   15.3800 C.3       1 LG61        0.0000
     10 H6         15.0400   14.4800   15.7900 H         1 LG61        0.0000
     11 H7         16.7500   14.7100   15.5900 H         1 LG61        0.0000
     12 H8         15.6400   13.9100   14.3400 H         1 LG61        0.0000
     13 C5         14.8000   11.7800   15.9200 C.3       1 LG61        0.0000
     14 H9         14.3600   11.6400   14.9300 H         1 LG61        0.0000
     15 H10        14.9700   10.7300   16.1900 H         1 LG61        0.0000
     16 H11        14.0500   12.1900   16.5800 H         1 LG61        0.0000
     17 C6         17.1200   11.8300   15.1400 C.2       1 LG61        0.0000
     18 O1         17.0000   10.6200   14.9100 O.2       1 LG61        0.0000
     19 C7         18.4100   12.5400   14.7500 C.2       1 LG61        0.0000
     20 O2         19.2700   12.5800   15.6300 O.2       1 LG61        0.0000
     21 N1         18.5700   13.1000   13.5500 N.am      1 LG61        0.0000
     22 C8         17.6500   13.1400   12.4300 C.3       1 LG61        0.0000
     23 H12        16.7400   12.6100   12.6900 H         1 LG61        0.0000
     24 H13        17.4500   14.1400   12.0400 H         1 LG61        0.0000
     25 C9         18.1400   12.3800   11.1900 C.3       1 LG61        0.0000
     26 H14        18.1900   11.3300   11.5000 H         1 LG61        0.0000
     27 H15        17.4600   12.5000   10.3500 H         1 LG61        0.0000
     28 C10        19.5600   12.7800   10.7900 C.3       1 LG61        0.0000
     29 H16        19.8800   12.1300    9.9800 H         1 LG61        0.0000
     30 H17        19.6500   13.7300   10.2600 H         1 LG61        0.0000
     31 C11        20.4700   12.7800   12.0200 C.3       1 LG61        0.0000
     32 H18        20.5700   11.7300   12.3100 H         1 LG61        0.0000
     33 H19        21.4700   13.1200   11.7600 H         1 LG61        0.0000
     34 C12        19.8700   13.6100   13.1500 C.3       1 LG61        0.0000
     35 H20        20.5700   13.5400   13.9900 H         1 LG61        0.0000
     36 C13        19.8900   15.1000   12.8400 C.2       1 LG61        0.0000
     37 O3         20.6700   15.7200   12.1100 O.2       1 LG61        0.0000
     38 O4         18.9200   15.7300   13.4800 O.3       1 LG61        0.0000
     39 C14        18.6800   17.1000   13.2700 C.3       1 LG61        0.0000
     40 H21        19.6500   17.5900   13.3200 H         1 LG61        0.0000
     41 H22        18.1000   17.5200   14.1000 H         1 LG61        0.0000
     42 C15        18.0600   17.4400   11.9100 C.3       1 LG61        0.0000
     43 H23        17.9200   16.5600   11.2800 H         1 LG61        0.0000
     44 H24        18.8600   18.0400   11.4800 H         1 LG61        0.0000
     45 C16        16.7600   18.1900   12.1900 C.3       1 LG61        0.0000
     46 H25        16.4600   18.7300   11.2900 H         1 LG61        0.0000
     47 H26        16.9000   19.0600   12.8300 H         1 LG61        0.0000
     48 C17        15.5700   17.3400   12.5600 C.ar      1 LG61        0.0000
     49 C18        15.2100   16.2000   11.8400 C.ar      1 LG61        0.0000
     50 H27        15.7500   15.9100   10.9500 H         1 LG61        0.0000
     51 C19        14.8200   17.7800   13.6500 C.ar      1 LG61        0.0000
     52 H28        15.1800   18.5400   14.3400 H         1 LG61        0.0000
     53 C20        13.6100   17.1500   13.9700 C.ar      1 LG61        0.0000
     54 C21        14.0500   15.5100   12.2200 C.ar      1 LG61        0.0000
     55 O5         12.8600   17.6300   15.0000 O.3       1 LG61        0.0000
     56 C22        13.3300   15.9300   13.3400 C.ar      1 LG61        0.0000
     57 O6         13.5500   14.4000   11.6000 O.3       1 LG61        0.0000
     58 C23        12.3800   18.9500   14.8500 C.3       1 LG61        0.0000
     59 H29        13.1900   19.6400   15.1000 H         1 LG61        0.0000
     60 H30        11.9500   19.2200   13.8900 H         1 LG61        0.0000
     61 H31        11.5800   19.0300   15.5800 H         1 LG61        0.0000
     62 O7         12.2600   15.2000   13.7700 O.3       1 LG61        0.0000
     63 C24        14.1800   14.0000   10.4100 C.3       1 LG61        0.0000
     64 H32        13.5300   13.1900   10.0800 H         1 LG61        0.0000
     65 H33        14.2100   14.7400    9.6000 H         1 LG61        0.0000
     66 H34        15.1800   13.7000   10.7100 H         1 LG61        0.0000
     67 C25        12.5100   14.1700   14.7000 C.3       1 LG61        0.0000
     68 H35        12.9000   14.5400   15.6500 H         1 LG61        0.0000
     69 H36        11.6400   13.5200   14.7400 H         1 LG61        0.0000
     70 H37        13.2600   13.4900   14.3000 H         1 LG61        0.0000
@<TRIPOS>BOND
     1   63   65 1
     2   28   29 1
     3   63   64 1
     4   28   30 1
     5   25   27 1
     6   63   66 1
     7   57   63 1
     8   25   28 1
     9   28   31 1
    10   49   50 1
    11   25   26 1
    12   22   25 1
    13   42   43 1
    14   45   46 1
    15   42   44 1
    16   54   57 1
    17   31   33 1
    18   49   54 ar
    19   48   49 ar
    20   42   45 1
    21   39   42 1
    22   31   32 1
    23   31   34 1
    24   22   24 1
    25   36   37 2
    26   45   48 1
    27   45   47 1
    28   54   56 ar
    29   22   23 1
    30   21   22 1
    31   48   51 ar
    32   34   36 1
    33   36   38 1
    34   21   34 1
    35   34   35 1
    36   39   40 1
    37   38   39 1
    38   39   41 1
    39   56   62 1
    40   53   56 ar
    41   19   21 am
    42   51   53 ar
    43   51   52 1
    44   62   67 1
    45   58   60 1
    46   53   55 1
    47   67   70 1
    48    9   12 1
    49   67   69 1
    50   67   68 1
    51   17   19 1
    52   19   20 2
    53   55   58 1
    54   58   59 1
    55   58   61 1
    56   17   18 2
    57   13   14 1
    58    8   17 1
    59    9   11 1
    60    9   10 1
    61    8    9 1
    62    8   13 1
    63   13   15 1
    64   13   16 1
    65    5    8 1
    66    5    7 1
    67    5    6 1
    68    1    5 1
    69    1    2 1
    70    1    4 1
    71    1    3 1
