@<TRIPOS>MOLECULE
*****
   71    73     0     0     0
SMALL
NO_CHARGES

@<TRIPOS>ATOM
      1 C1         20.1500   17.3500   13.9900 C.ar      1 LG81        0.0000
      2 H1         20.8300   16.9500   14.7300 H         1 LG81        0.0000
      3 C2         18.7700   17.1900   14.2100 C.ar      1 LG81        0.0000
      4 H2         18.4500   16.7900   15.1600 H         1 LG81        0.0000
      5 C3         20.5700   18.0400   12.8500 C.ar      1 LG81        0.0000
      6 H3         21.6200   18.1300   12.6200 H         1 LG81        0.0000
      7 C4         19.6500   18.5500   11.9200 C.ar      1 LG81        0.0000
      8 H4         20.0300   19.0400   11.0400 H         1 LG81        0.0000
      9 C5         17.8700   17.7700   13.3200 C.ar      1 LG81        0.0000
     10 C6         18.2700   18.4500   12.1600 C.ar      1 LG81        0.0000
     11 H5         17.6800   18.8800   11.3700 H         1 LG81        0.0000
     12 C7         16.3800   17.7400   13.5900 C.3       1 LG81        0.0000
     13 C8         16.3500   17.8500   14.6700 C.3       1 LG81        0.0000
     14 H6         15.8900   18.5100   12.9900 H         1 LG81        0.0000
     15 C9         15.7200   16.4300   13.1800 C.3       1 LG81        0.0000
     16 H7         16.1200   15.5800   13.7400 H         1 LG81        0.0000
     17 H8         14.6500   16.4800   13.4000 H         1 LG81        0.0000
     18 C10        15.8300   15.9600   11.7300 C.3       1 LG81        0.0000
     19 H9         16.8600   15.8900   11.3700 H         1 LG81        0.0000
     20 C11        15.0000   16.8400   10.8300 C.ar      1 LG81        0.0000
     21 O1         15.3200   14.6400   11.7000 O.3       1 LG81        0.0000
     22 C12        15.6400   17.6000    9.8400 C.ar      1 LG81        0.0000
     23 H10        16.7000   17.4700    9.6900 H         1 LG81        0.0000
     24 C13        15.6300   13.7800   10.7400 C.2       1 LG81        0.0000
     25 O2         16.2900   14.0100    9.7300 O.2       1 LG81        0.0000
     26 C14        14.9500   18.5800    9.1100 C.ar      1 LG81        0.0000
     27 H11        15.5800   19.1100    8.4100 H         1 LG81        0.0000
     28 C15        15.1500   12.3600   11.0200 C.3       1 LG81        0.0000
     29 H12        15.9500   11.9500   11.6300 H         1 LG81        0.0000
     30 C16        13.5600   18.6300    9.2800 C.ar      1 LG81        0.0000
     31 H13        12.9800   19.1000    8.5000 H         1 LG81        0.0000
     32 C17        15.0300   11.5500    9.7300 C.3       1 LG81        0.0000
     33 H14        14.9000   10.5400   10.1200 H         1 LG81        0.0000
     34 H15        16.0200   11.5100    9.2500 H         1 LG81        0.0000
     35 C18        12.9000   17.8500   10.2300 C.ar      1 LG81        0.0000
     36 H16        11.8200   17.8000   10.2800 H         1 LG81        0.0000
     37 C19        13.9900   11.9900    8.7100 C.3       1 LG81        0.0000
     38 H17        13.6800   11.1600    8.0700 H         1 LG81        0.0000
     39 H18        14.3000   12.7000    7.9500 H         1 LG81        0.0000
     40 C20        13.6200   16.9500   11.0200 C.ar      1 LG81        0.0000
     41 H19        13.1200   16.3600   11.7900 H         1 LG81        0.0000
     42 C21        12.7600   12.5600    9.4200 C.3       1 LG81        0.0000
     43 H20        11.8200   12.3000    8.9400 H         1 LG81        0.0000
     44 H21        12.7200   13.6500    9.4600 H         1 LG81        0.0000
     45 C22        12.7000   12.0300   10.8500 C.3       1 LG81        0.0000
     46 H22        12.4600   10.9700   10.8600 H         1 LG81        0.0000
     47 H23        11.9200   12.5500   11.4000 H         1 LG81        0.0000
     48 N1         13.8700   12.2500   11.6800 N.am      1 LG81        0.0000
     49 C23        13.8500   12.2200   13.0100 C.2       1 LG81        0.0000
     50 O3         14.9000   12.2500   13.6500 O.2       1 LG81        0.0000
     51 C24        12.5100   12.2900   13.7500 C.2       1 LG81        0.0000
     52 O4         11.7200   11.3600   13.6600 O.2       1 LG81        0.0000
     53 C25        12.1700   13.3600   14.7800 C.3       1 LG81        0.0000
     54 C26        13.0400   14.6100   14.6900 C.3       1 LG81        0.0000
     55 H24        12.6900   15.3700   15.3900 H         1 LG81        0.0000
     56 H25        14.0800   14.4300   14.9700 H         1 LG81        0.0000
     57 H26        13.0000   14.9100   13.6500 H         1 LG81        0.0000
     58 C27        10.7300   13.8300   14.5900 C.3       1 LG81        0.0000
     59 H27        10.5700   14.3100   13.6200 H         1 LG81        0.0000
     60 H28         9.9600   13.0500   14.6300 H         1 LG81        0.0000
     61 H29        10.5500   14.5800   15.3500 H         1 LG81        0.0000
     62 C28        12.2600   12.9200   16.2400 C.3       1 LG81        0.0000
     63 H30        11.4500   12.2400   16.5200 H         1 LG81        0.0000
     64 H31        12.0800   13.8200   16.8200 H         1 LG81        0.0000
     65 C29        13.5200   12.2300   16.7600 C.3       1 LG81        0.0000
     66 H32        14.3900   12.8000   16.4200 H         1 LG81        0.0000
     67 H33        13.6200   12.1900   17.8500 H         1 LG81        0.0000
     68 H34        13.7400   11.2100   16.4500 H         1 LG81        0.0000
     69 H          16.3500   17.8500   14.6700 H         1 LG81        0.0000
     70 H          16.3500   17.8500   14.6700 H         1 LG81        0.0000
     71 H          16.3500   17.8500   14.6700 H         1 LG81        0.0000
@<TRIPOS>BOND
     1   37   39 1
     2   37   38 1
     3   26   27 1
     4   30   31 1
     5   37   42 1
     6   32   37 1
     7   42   43 1
     8   26   30 ar
     9   22   26 ar
    10   32   34 1
    11   30   35 ar
    12   42   44 1
    13   42   45 1
    14   22   23 1
    15   24   25 2
    16   32   33 1
    17   28   32 1
    18   20   22 ar
    19   35   36 1
    20   35   40 ar
    21   24   28 1
    22   21   24 1
    23   20   40 ar
    24   18   20 1
    25   45   46 1
    26   45   47 1
    27   45   48 1
    28   28   29 1
    29   28   48 1
    30   40   41 1
    31    7    8 1
    32   10   11 1
    33   18   19 1
    34   48   49 am
    35   18   21 1
    36   15   18 1
    37    7   10 ar
    38    5    7 ar
    39    9   10 ar
    40    5    6 1
    41    1    5 ar
    42   12   14 1
    43   49   50 2
    44   49   51 1
    45   15   17 1
    46   12   15 1
    47   15   16 1
    48    9   12 1
    49    3    9 ar
    50   12   13 1
    51   58   59 1
    52   54   57 1
    53   51   52 2
    54   51   53 1
    55    1    3 ar
    56    1    2 1
    57    3    4 1
    58   58   60 1
    59   53   58 1
    60   58   61 1
    61   53   54 1
    62   54   56 1
    63   54   55 1
    64   53   62 1
    65   62   63 1
    66   62   65 1
    67   62   64 1
    68   65   66 1
    69   65   68 1
    70   65   67 1
    71   13   69 1
    72   13   70 1
    73   13   71 1
