@<TRIPOS>MOLECULE
LG2-0-eq
   46    47     0     0     0
SMALL
NO_CHARGES

@<TRIPOS>ATOM
      1 C1         18.6700   16.6700   13.3100 C.3       1 MOL         0.0000
      2 H1         18.8900   17.7200   13.5000 H         1 MOL         0.0000
      3 H2         18.8100   16.0800   14.2200 H         1 MOL         0.0000
      4 H3         19.2800   16.3100   12.4800 H         1 MOL         0.0000
      5 C2         17.2400   16.3800   12.8300 C.3       1 MOL         0.0000
      6 H4         16.5500   16.6300   13.6300 H         1 MOL         0.0000
      7 H5         16.9800   17.0800   12.0400 H         1 MOL         0.0000
      8 O1         17.0600   15.0000   12.6200 O.3       1 MOL         0.0000
      9 C3         17.0600   14.4200   11.4200 C.2       1 MOL         0.0000
     10 O2         17.4000   15.1200   10.4700 O.2       1 MOL         0.0000
     11 C4         16.7600   12.9300   11.5500 C.3       1 MOL         0.0000
     12 H6         17.7200   12.5400   11.8900 H         1 MOL         0.0000
     13 C5         16.5000   12.2900   10.1900 C.3       1 MOL         0.0000
     14 H7         16.6800   11.2200   10.1500 H         1 MOL         0.0000
     15 H8         17.2500   12.5400    9.4300 H         1 MOL         0.0000
     16 C6         15.1100   12.6300    9.6600 C.3       1 MOL         0.0000
     17 H9         15.1300   12.0700    8.7300 H         1 MOL         0.0000
     18 H10        14.9200   13.6800    9.4300 H         1 MOL         0.0000
     19 C7         14.1200   12.0200   10.6600 C.3       1 MOL         0.0000
     20 H11        14.2200   10.9400   10.7700 H         1 MOL         0.0000
     21 H12        13.1400   12.2000   10.2200 H         1 MOL         0.0000
     22 C8         14.3000   12.7200   12.0100 C.3       1 MOL         0.0000
     23 H13        13.5600   12.3000   12.6900 H         1 MOL         0.0000
     24 H14        14.1800   13.8000   11.9600 H         1 MOL         0.0000
     25 N1         15.6800   12.6400   12.4700 N.am      1 MOL         0.0000
     26 C9         15.9300   12.2600   13.7200 C.2       1 MOL         0.0000
     27 O3         16.9900   11.8000   14.1300 O.2       1 MOL         0.0000
     28 C10        14.9600   12.7000   14.8200 C.2       1 MOL         0.0000
     29 O4         14.2200   11.9100   15.4000 O.2       1 MOL         0.0000
     30 C11        15.0000   14.1700   15.2000 C.3       1 MOL         0.0000
     31 H15        14.9400   14.7900   14.3100 H         1 MOL         0.0000
     32 C12        16.2900   14.6100   15.8900 C.3       1 MOL         0.0000
     33 H16        17.2300   14.4000   15.3700 H         1 MOL         0.0000
     34 H17        16.4100   13.9800   16.7800 H         1 MOL         0.0000
     35 C13        16.3200   16.0600   16.3800 C.3       1 MOL         0.0000
     36 H18        16.2100   16.7200   15.5200 H         1 MOL         0.0000
     37 H19        17.1800   16.4700   16.9000 H         1 MOL         0.0000
     38 C14        15.0300   16.3200   17.1500 C.3       1 MOL         0.0000
     39 H20        15.1000   17.3000   17.6200 H         1 MOL         0.0000
     40 H21        15.0400   15.6500   18.0000 H         1 MOL         0.0000
     41 C15        13.7300   16.0200   16.4000 C.3       1 MOL         0.0000
     42 H22        13.6700   16.6300   15.4900 H         1 MOL         0.0000
     43 H23        12.8600   16.1900   17.0300 H         1 MOL         0.0000
     44 C16        13.7600   14.5500   16.0000 C.3       1 MOL         0.0000
     45 H24        13.6400   14.0400   16.9600 H         1 MOL         0.0000
     46 H25        12.8300   14.3700   15.4600 H         1 MOL         0.0000
@<TRIPOS>BOND
     1   16   17 1
     2   13   15 1
     3   16   18 1
     4   13   16 1
     5   16   19 1
     6   13   14 1
     7   11   13 1
     8   19   21 1
     9    9   10 2
    10   19   20 1
    11   19   22 1
    12    9   11 1
    13    8    9 1
    14   11   12 1
    15   11   25 1
    16   22   24 1
    17   22   25 1
    18   22   23 1
    19    5    7 1
    20   25   26 am
    21    1    4 1
    22    5    8 1
    23    1    5 1
    24    5    6 1
    25    1    2 1
    26    1    3 1
    27   26   27 2
    28   26   28 1
    29   30   31 1
    30   28   30 1
    31   28   29 2
    32   30   32 1
    33   30   44 1
    34   32   33 1
    35   44   46 1
    36   41   42 1
    37   35   36 1
    38   32   35 1
    39   32   34 1
    40   41   44 1
    41   44   45 1
    42   35   37 1
    43   35   38 1
    44   41   43 1
    45   38   41 1
    46   38   39 1
    47   38   40 1
