@<TRIPOS>MOLECULE
LG9-0-eq
   77    79     0     0     0
SMALL
NO_CHARGES

@<TRIPOS>ATOM
      1 C1         14.4600   15.0100   17.9200 C.3       1 MOL         0.0000
      2 C2         14.8100   13.9800   17.8600 C.3       1 MOL         0.0000
      3 H1         15.3100   15.5600   17.5100 H         1 MOL         0.0000
      4 H2         14.3300   15.2800   18.9700 H         1 MOL         0.0000
      5 C3         13.1700   15.1600   17.1100 C.3       1 MOL         0.0000
      6 H3         12.5100   14.4400   17.5900 H         1 MOL         0.0000
      7 H4         12.8200   16.1700   17.3500 H         1 MOL         0.0000
      8 C4         13.2000   15.0800   15.5800 C.3       1 MOL         0.0000
      9 C5         13.9700   16.2800   15.0500 C.3       1 MOL         0.0000
     10 H5         15.0100   16.3500   15.3800 H         1 MOL         0.0000
     11 H6         13.8200   16.4400   13.9800 H         1 MOL         0.0000
     12 H7         13.5000   17.1400   15.5200 H         1 MOL         0.0000
     13 C6         11.7900   15.2200   14.9900 C.3       1 MOL         0.0000
     14 H8         11.3400   16.1700   15.2700 H         1 MOL         0.0000
     15 H9         11.6200   15.0000   13.9400 H         1 MOL         0.0000
     16 H10        11.1500   14.4800   15.4700 H         1 MOL         0.0000
     17 C7         13.7100   13.6900   15.2300 C.2       1 MOL         0.0000
     18 O1         12.9800   12.7000   15.2700 O.2       1 MOL         0.0000
     19 C8         15.1300   13.5700   14.6900 C.2       1 MOL         0.0000
     20 O2         16.0800   13.7300   15.4500 O.2       1 MOL         0.0000
     21 N1         15.3300   13.4700   13.3700 N.am      1 MOL         0.0000
     22 C9         14.2900   13.5600   12.3600 C.3       1 MOL         0.0000
     23 H11        13.3500   13.9700   12.7200 H         1 MOL         0.0000
     24 H12        14.5600   14.2400   11.5500 H         1 MOL         0.0000
     25 C10        14.1500   12.2100   11.6600 C.3       1 MOL         0.0000
     26 H13        13.7600   11.5200   12.4200 H         1 MOL         0.0000
     27 H14        13.4300   12.2500   10.8500 H         1 MOL         0.0000
     28 C11        15.5000   11.7400   11.1300 C.3       1 MOL         0.0000
     29 H15        15.3500   10.7300   10.7400 H         1 MOL         0.0000
     30 H16        15.7700   12.3100   10.2500 H         1 MOL         0.0000
     31 C12        16.6600   11.8800   12.1300 C.3       1 MOL         0.0000
     32 H17        16.4600   11.1200   12.8900 H         1 MOL         0.0000
     33 H18        17.5900   11.5000   11.7100 H         1 MOL         0.0000
     34 C13        16.6300   13.2600   12.7800 C.3       1 MOL         0.0000
     35 H19        17.4900   13.2800   13.4600 H         1 MOL         0.0000
     36 C14        17.0400   14.4500   11.9400 C.2       1 MOL         0.0000
     37 O3         17.8500   14.3700   11.0200 O.2       1 MOL         0.0000
     38 O4         16.4900   15.5500   12.4400 O.3       1 MOL         0.0000
     39 C15        16.9800   16.8100   12.0400 C.3       1 MOL         0.0000
     40 H20        18.0000   16.7200   11.6500 H         1 MOL         0.0000
     41 C16        16.2100   17.6000   10.9900 C.3       1 MOL         0.0000
     42 H21        16.4700   18.6500   11.1400 H         1 MOL         0.0000
     43 C17        17.1900   17.7100   13.2600 C.3       1 MOL         0.0000
     44 H22        16.2200   18.1100   13.5400 H         1 MOL         0.0000
     45 H23        17.7400   18.5400   12.8100 H         1 MOL         0.0000
     46 C18        16.6700   17.0700    9.6300 C.3       1 MOL         0.0000
     47 H24        16.5600   15.9900    9.6800 H         1 MOL         0.0000
     48 H25        17.7100   17.3700    9.6300 H         1 MOL         0.0000
     49 C19        17.9500   17.1100   14.4400 C.3       1 MOL         0.0000
     50 H26        18.8600   16.6800   14.0100 H         1 MOL         0.0000
     51 H27        17.4200   16.3400   14.9900 H         1 MOL         0.0000
     52 C20        15.8900   17.7400    8.4900 C.3       1 MOL         0.0000
     53 H28        16.2900   17.1900    7.6300 H         1 MOL         0.0000
     54 H29        16.1300   18.7900    8.3200 H         1 MOL         0.0000
     55 C21        18.3000   18.0800   15.5400 C.ar      1 MOL         0.0000
     56 C22        14.4100   17.4800    8.7500 C.3       1 MOL         0.0000
     57 H30        14.2800   16.4000    8.8600 H         1 MOL         0.0000
     58 H31        13.7700   17.7200    7.9000 H         1 MOL         0.0000
     59 C23        19.6500   18.3000   15.8300 C.ar      1 MOL         0.0000
     60 H32        20.4500   17.7100   15.4100 H         1 MOL         0.0000
     61 C24        13.9800   18.2100   10.0200 C.3       1 MOL         0.0000
     62 H33        12.9000   18.1200   10.1500 H         1 MOL         0.0000
     63 H34        14.1900   19.2800    9.9500 H         1 MOL         0.0000
     64 C25        20.0400   19.2000   16.8300 C.ar      1 MOL         0.0000
     65 H35        21.0600   19.4400   17.0800 H         1 MOL         0.0000
     66 C26        14.6900   17.5600   11.2000 C.3       1 MOL         0.0000
     67 H36        14.4100   18.0700   12.1300 H         1 MOL         0.0000
     68 H37        14.2800   16.6000   11.5000 H         1 MOL         0.0000
     69 C27        19.0300   19.8700   17.5300 C.ar      1 MOL         0.0000
     70 H38        19.3800   20.5200   18.3300 H         1 MOL         0.0000
     71 C28        17.6800   19.5700   17.3000 C.ar      1 MOL         0.0000
     72 H39        16.8700   20.1700   17.6900 H         1 MOL         0.0000
     73 C29        17.2900   18.6400   16.3300 C.ar      1 MOL         0.0000
     74 H40        16.2500   18.4200   16.1500 H         1 MOL         0.0000
     75 H41        15.7371   13.8727   18.4423 H         1 MOL         0.0000
     76 H42        14.0411   13.3073   18.2679 H         1 MOL         0.0000
     77 H43        15.0050   13.7198   16.8092 H         1 MOL         0.0000
@<TRIPOS>BOND
     1   52   53 1
     2   56   58 1
     3   52   54 1
     4   52   56 1
     5   46   52 1
     6   56   57 1
     7   56   61 1
     8   46   48 1
     9   46   47 1
    10   41   46 1
    11   61   63 1
    12   61   62 1
    13   61   66 1
    14   28   30 1
    15   28   29 1
    16   25   27 1
    17   41   42 1
    18   41   66 1
    19   39   41 1
    20   36   37 2
    21   25   28 1
    22   28   31 1
    23   66   68 1
    24   66   67 1
    25   22   24 1
    26   39   40 1
    27   22   25 1
    28   25   26 1
    29   31   33 1
    30   36   38 1
    31   34   36 1
    32   38   39 1
    33   39   43 1
    34   31   34 1
    35   31   32 1
    36   22   23 1
    37   21   22 1
    38   21   34 1
    39   34   35 1
    40   43   45 1
    41   43   44 1
    42   43   49 1
    43   19   21 am
    44   13   15 1
    45    9   11 1
    46   49   50 1
    47   49   51 1
    48   49   55 1
    49   17   19 1
    50   19   20 2
    51   13   14 1
    52   13   16 1
    53    8   13 1
    54    9   10 1
    55    9   12 1
    56    8    9 1
    57   17   18 2
    58    8   17 1
    59   59   60 1
    60   55   59 ar
    61   55   73 ar
    62    5    8 1
    63   59   64 ar
    64   73   74 1
    65   71   73 ar
    66   64   65 1
    67   64   69 ar
    68    5    7 1
    69    5    6 1
    70    1    5 1
    71   69   71 ar
    72   71   72 1
    73    1    3 1
    74   69   70 1
    75    1    2 1
    76    1    4 1
    77    2   75 1
    78    2   76 1
    79    2   77 1
